BEGIN Configuration File: ../../booksim2/src/examples/flatflyconfig
// $Id$

// Copyright (c) 2007-2015, Trustees of The Leland Stanford Junior University
// All rights reserved.
//
// Redistribution and use in source and binary forms, with or without
// modification, are permitted provided that the following conditions are met:
//
// Redistributions of source code must retain the above copyright notice, this
// list of conditions and the following disclaimer.
// Redistributions in binary form must reproduce the above copyright notice,
// this list of conditions and the following disclaimer in the documentation
// and/or other materials provided with the distribution.
//
// THIS SOFTWARE IS PROVIDED BY THE COPYRIGHT HOLDERS AND CONTRIBUTORS "AS IS"
// AND ANY EXPRESS OR IMPLIED WARRANTIES, INCLUDING, BUT NOT LIMITED TO, THE
// IMPLIED WARRANTIES OF MERCHANTABILITY AND FITNESS FOR A PARTICULAR PURPOSE
// ARE DISCLAIMED. IN NO EVENT SHALL THE COPYRIGHT OWNER OR CONTRIBUTORS BE
// LIABLE FOR ANY DIRECT, INDIRECT, INCIDENTAL, SPECIAL, EXEMPLARY, OR
// CONSEQUENTIAL DAMAGES (INCLUDING, BUT NOT LIMITED TO, PROCUREMENT OF
// SUBSTITUTE GOODS OR SERVICES; LOSS OF USE, DATA, OR PROFITS; OR BUSINESS
// INTERRUPTION) HOWEVER CAUSED AND ON ANY THEORY OF LIABILITY, WHETHER IN
// CONTRACT, STRICT LIABILITY, OR TORT (INCLUDING NEGLIGENCE OR OTHERWISE)
// ARISING IN ANY WAY OUT OF THE USE OF THIS SOFTWARE, EVEN IF ADVISED OF THE
// POSSIBILITY OF SUCH DAMAGE.

//A flattened butterfly configurate file with many tweaks from the
//default settings. 


// Flow control
// Total number of VCs must match the above assignments
num_vcs     = 2;
vc_buf_size = 16;

wait_for_tail_credit = 0;

//
// Router architectureq
//
vc_allocator = islip; 
sw_allocator = islip;
alloc_iters  = 3;

credit_delay   = 0;
routing_delay  = 1;
vc_alloc_delay = 1;
sw_alloc_delay = 1;
st_final_delay = 1;

input_speedup     = 1;
output_speedup    = 1;
internal_speedup  = 1.6;

//
// Traffic
//

warmup_periods = 3;

sample_period  = 1000;  

sim_count          = 1;

traffic       = uniform;


// Flatfly 
//
// #node = k^(n+1)
//
// x, y, specifies the arrangement of routers in x and y dim
// xr, yr specifiies the arayment of clients in a router
//
topology = flatfly;
subnets = 1;

c  = 16;
k  = 16;
n  = 1;

x  = 16;
y  = 1;
xr = 16;
yr = 1;

use_noc_latency = 0;

//
// Routing
//

routing_function = ran_min;

//1: batch mode, 0: injection mode
use_read_write = 0;

//for injection mode
packet_size = 1;
injection_rate = 0.1;

//for batch mode
read_request_size=1;
write_request_size=1;
read_reply_size=1;
write_reply_size=1;

read_request_begin_vc  = 0;
read_request_end_vc    = 3;
write_reply_begin_vc   = 4;
write_reply_end_vc     = 7;
read_reply_begin_vc    = 4;
read_reply_end_vc      = 7;
write_request_begin_vc = 0;
write_request_end_vc   = 3;

//latency: drains all packet, throughput:no drain?
sim_type = latency;

END Configuration File: ../../booksim2/src/examples/flatflyconfig
OVERRIDE Parameter: sim_type=latency
OVERRIDE Parameter: traffic=uniform
OVERRIDE Parameter: injection_rate={0.625}
 Flat Bufferfly 
 k = 16 n = 1 c = 16
 each switch - total radix =  31
 # of switches = 16
 # of channels = 240
 # of nodes ( size of network ) = 256
Class 0:
Packet latency average = 13.0255
	minimum = 5
	maximum = 43
Network latency average = 13.0255
	minimum = 5
	maximum = 43
Slowest packet = 132614
Flit latency average = 13.0255
	minimum = 5
	maximum = 43
Slowest flit = 132614
Fragmentation average = 0
	minimum = 0
	maximum = 0
Injected packet rate average = 0.624559
	minimum = 0.582 (at node 126)
	maximum = 0.663 (at node 187)
Accepted packet rate average = 0.616285
	minimum = 0.556 (at node 95)
	maximum = 0.683 (at node 248)
Injected flit rate average = 0.624559
	minimum = 0.582 (at node 126)
	maximum = 0.663 (at node 187)
Accepted flit rate average= 0.616285
	minimum = 0.556 (at node 95)
	maximum = 0.683 (at node 248)
Injected packet length average = 1
Accepted packet length average = 1
Total in-flight flits = 2118 (0 measured)
latency change    = 1
throughput change = 1
Class 0:
Packet latency average = 13.0665
	minimum = 5
	maximum = 44
Network latency average = 13.0665
	minimum = 5
	maximum = 44
Slowest packet = 194915
Flit latency average = 13.0665
	minimum = 5
	maximum = 44
Slowest flit = 194915
Fragmentation average = 0
	minimum = 0
	maximum = 0
Injected packet rate average = 0.624582
	minimum = 0.595 (at node 172)
	maximum = 0.652 (at node 170)
Accepted packet rate average = 0.620457
	minimum = 0.574 (at node 128)
	maximum = 0.666 (at node 68)
Injected flit rate average = 0.624582
	minimum = 0.595 (at node 172)
	maximum = 0.652 (at node 170)
Accepted flit rate average= 0.620457
	minimum = 0.574 (at node 128)
	maximum = 0.666 (at node 68)
Injected packet length average = 1
Accepted packet length average = 1
Total in-flight flits = 2112 (0 measured)
latency change    = 0.0031315
throughput change = 0.00672387
Class 0:
Packet latency average = 13.1663
	minimum = 5
	maximum = 54
Network latency average = 13.1663
	minimum = 5
	maximum = 54
Slowest packet = 333512
Flit latency average = 13.1663
	minimum = 5
	maximum = 54
Slowest flit = 333512
Fragmentation average = 0
	minimum = 0
	maximum = 0
Injected packet rate average = 0.624594
	minimum = 0.584 (at node 1)
	maximum = 0.677 (at node 149)
Accepted packet rate average = 0.624516
	minimum = 0.55 (at node 62)
	maximum = 0.695 (at node 5)
Injected flit rate average = 0.624594
	minimum = 0.584 (at node 1)
	maximum = 0.677 (at node 149)
Accepted flit rate average= 0.624516
	minimum = 0.55 (at node 62)
	maximum = 0.695 (at node 5)
Injected packet length average = 1
Accepted packet length average = 1
Total in-flight flits = 2132 (0 measured)
latency change    = 0.00758603
throughput change = 0.00649879
Warmed up ...Time used is 3000 cycles
Class 0:
Packet latency average = 13.1399
	minimum = 5
	maximum = 48
Network latency average = 13.1399
	minimum = 5
	maximum = 48
Slowest packet = 503956
Flit latency average = 13.1556
	minimum = 5
	maximum = 48
Slowest flit = 503956
Fragmentation average = 0
	minimum = 0
	maximum = 0
Injected packet rate average = 0.625188
	minimum = 0.586 (at node 153)
	maximum = 0.665 (at node 109)
Accepted packet rate average = 0.625152
	minimum = 0.558 (at node 186)
	maximum = 0.69 (at node 255)
Injected flit rate average = 0.625188
	minimum = 0.586 (at node 153)
	maximum = 0.665 (at node 109)
Accepted flit rate average= 0.625152
	minimum = 0.558 (at node 186)
	maximum = 0.69 (at node 255)
Injected packet length average = 1
Accepted packet length average = 1
Total in-flight flits = 2141 (2141 measured)
latency change    = 0.0020124
throughput change = 0.0010185
Class 0:
Packet latency average = 13.1333
	minimum = 5
	maximum = 48
Network latency average = 13.1333
	minimum = 5
	maximum = 48
Slowest packet = 503956
Flit latency average = 13.1412
	minimum = 5
	maximum = 48
Slowest flit = 503956
Fragmentation average = 0
	minimum = 0
	maximum = 0
Injected packet rate average = 0.624777
	minimum = 0.595 (at node 146)
	maximum = 0.6555 (at node 86)
Accepted packet rate average = 0.624844
	minimum = 0.5655 (at node 239)
	maximum = 0.6775 (at node 121)
Injected flit rate average = 0.624777
	minimum = 0.595 (at node 146)
	maximum = 0.6555 (at node 86)
Accepted flit rate average= 0.624844
	minimum = 0.5655 (at node 239)
	maximum = 0.6775 (at node 121)
Injected packet length average = 1
Accepted packet length average = 1
Total in-flight flits = 2098 (2098 measured)
latency change    = 0.000505595
throughput change = 0.000493873
Class 0:
Packet latency average = 13.1272
	minimum = 5
	maximum = 48
Network latency average = 13.1272
	minimum = 5
	maximum = 48
Slowest packet = 503956
Flit latency average = 13.1325
	minimum = 5
	maximum = 48
Slowest flit = 503956
Fragmentation average = 0
	minimum = 0
	maximum = 0
Injected packet rate average = 0.62484
	minimum = 0.600667 (at node 139)
	maximum = 0.645667 (at node 86)
Accepted packet rate average = 0.624844
	minimum = 0.577667 (at node 102)
	maximum = 0.669333 (at node 225)
Injected flit rate average = 0.62484
	minimum = 0.600667 (at node 139)
	maximum = 0.645667 (at node 86)
Accepted flit rate average= 0.624844
	minimum = 0.577667 (at node 102)
	maximum = 0.669333 (at node 225)
Injected packet length average = 1
Accepted packet length average = 1
Total in-flight flits = 2129 (2129 measured)
latency change    = 0.000457951
throughput change = 0
Draining all recorded packets ...
Draining remaining packets ...
Time taken is 6073 cycles
====== Overall Traffic Statistics ======
====== Traffic class 0 ======
Packet latency average = 13.1334 (1 samples)
	minimum = 5 (1 samples)
	maximum = 48 (1 samples)
Network latency average = 13.1334 (1 samples)
	minimum = 5 (1 samples)
	maximum = 48 (1 samples)
Flit latency average = 13.1412 (1 samples)
	minimum = 5 (1 samples)
	maximum = 48 (1 samples)
Fragmentation average = 0 (1 samples)
	minimum = 0 (1 samples)
	maximum = 0 (1 samples)
Injected packet rate average = 0.62484 (1 samples)
	minimum = 0.600667 (1 samples)
	maximum = 0.645667 (1 samples)
Accepted packet rate average = 0.624844 (1 samples)
	minimum = 0.577667 (1 samples)
	maximum = 0.669333 (1 samples)
Injected flit rate average = 0.62484 (1 samples)
	minimum = 0.600667 (1 samples)
	maximum = 0.645667 (1 samples)
Accepted flit rate average = 0.624844 (1 samples)
	minimum = 0.577667 (1 samples)
	maximum = 0.669333 (1 samples)
Injected packet size average = 1 (1 samples)
Accepted packet size average = 1 (1 samples)
Hops average = 1.93681 (1 samples)
Total run time 3.71133
