BEGIN Configuration File: ../../booksim2/src/examples/flatflyconfig
// $Id$

// Copyright (c) 2007-2015, Trustees of The Leland Stanford Junior University
// All rights reserved.
//
// Redistribution and use in source and binary forms, with or without
// modification, are permitted provided that the following conditions are met:
//
// Redistributions of source code must retain the above copyright notice, this
// list of conditions and the following disclaimer.
// Redistributions in binary form must reproduce the above copyright notice,
// this list of conditions and the following disclaimer in the documentation
// and/or other materials provided with the distribution.
//
// THIS SOFTWARE IS PROVIDED BY THE COPYRIGHT HOLDERS AND CONTRIBUTORS "AS IS"
// AND ANY EXPRESS OR IMPLIED WARRANTIES, INCLUDING, BUT NOT LIMITED TO, THE
// IMPLIED WARRANTIES OF MERCHANTABILITY AND FITNESS FOR A PARTICULAR PURPOSE
// ARE DISCLAIMED. IN NO EVENT SHALL THE COPYRIGHT OWNER OR CONTRIBUTORS BE
// LIABLE FOR ANY DIRECT, INDIRECT, INCIDENTAL, SPECIAL, EXEMPLARY, OR
// CONSEQUENTIAL DAMAGES (INCLUDING, BUT NOT LIMITED TO, PROCUREMENT OF
// SUBSTITUTE GOODS OR SERVICES; LOSS OF USE, DATA, OR PROFITS; OR BUSINESS
// INTERRUPTION) HOWEVER CAUSED AND ON ANY THEORY OF LIABILITY, WHETHER IN
// CONTRACT, STRICT LIABILITY, OR TORT (INCLUDING NEGLIGENCE OR OTHERWISE)
// ARISING IN ANY WAY OUT OF THE USE OF THIS SOFTWARE, EVEN IF ADVISED OF THE
// POSSIBILITY OF SUCH DAMAGE.

//A flattened butterfly configurate file with many tweaks from the
//default settings. 


// Flow control
// Total number of VCs must match the above assignments
num_vcs     = 2;
vc_buf_size = 16;

wait_for_tail_credit = 0;

//
// Router architectureq
//
vc_allocator = islip; 
sw_allocator = islip;
alloc_iters  = 3;

credit_delay   = 0;
routing_delay  = 1;
vc_alloc_delay = 1;
sw_alloc_delay = 1;
st_final_delay = 1;

input_speedup     = 1;
output_speedup    = 1;
internal_speedup  = 1.6;

//
// Traffic
//

warmup_periods = 3;

sample_period  = 1000;  

sim_count          = 1;

traffic       = uniform;


// Flatfly 
//
// #node = k^(n+1)
//
// x, y, specifies the arrangement of routers in x and y dim
// xr, yr specifiies the arayment of clients in a router
//
topology = flatfly;
subnets = 1;

c  = 16;
k  = 16;
n  = 1;

x  = 16;
y  = 1;
xr = 16;
yr = 1;

use_noc_latency = 0;

//
// Routing
//

routing_function = ran_min;

//1: batch mode, 0: injection mode
use_read_write = 0;

//for injection mode
packet_size = 1;
injection_rate = 0.1;

//for batch mode
read_request_size=1;
write_request_size=1;
read_reply_size=1;
write_reply_size=1;

read_request_begin_vc  = 0;
read_request_end_vc    = 3;
write_reply_begin_vc   = 4;
write_reply_end_vc     = 7;
read_reply_begin_vc    = 4;
read_reply_end_vc      = 7;
write_request_begin_vc = 0;
write_request_end_vc   = 3;

//latency: drains all packet, throughput:no drain?
sim_type = latency;

END Configuration File: ../../booksim2/src/examples/flatflyconfig
OVERRIDE Parameter: sim_type=latency
OVERRIDE Parameter: traffic=uniform
OVERRIDE Parameter: injection_rate={0.25}
 Flat Bufferfly 
 k = 16 n = 1 c = 16
 each switch - total radix =  31
 # of switches = 16
 # of channels = 240
 # of nodes ( size of network ) = 256
Class 0:
Packet latency average = 9.87527
	minimum = 5
	maximum = 17
Network latency average = 9.87527
	minimum = 5
	maximum = 17
Slowest packet = 35013
Flit latency average = 9.87527
	minimum = 5
	maximum = 17
Slowest flit = 35013
Fragmentation average = 0
	minimum = 0
	maximum = 0
Injected packet rate average = 0.249094
	minimum = 0.211 (at node 104)
	maximum = 0.285 (at node 22)
Accepted packet rate average = 0.24641
	minimum = 0.204 (at node 110)
	maximum = 0.295 (at node 186)
Injected flit rate average = 0.249094
	minimum = 0.211 (at node 104)
	maximum = 0.285 (at node 22)
Accepted flit rate average= 0.24641
	minimum = 0.204 (at node 110)
	maximum = 0.295 (at node 186)
Injected packet length average = 1
Accepted packet length average = 1
Total in-flight flits = 687 (0 measured)
latency change    = 1
throughput change = 1
Class 0:
Packet latency average = 9.87397
	minimum = 5
	maximum = 17
Network latency average = 9.87397
	minimum = 5
	maximum = 17
Slowest packet = 35013
Flit latency average = 9.87397
	minimum = 5
	maximum = 17
Slowest flit = 35013
Fragmentation average = 0
	minimum = 0
	maximum = 0
Injected packet rate average = 0.249514
	minimum = 0.2245 (at node 104)
	maximum = 0.2755 (at node 101)
Accepted packet rate average = 0.248258
	minimum = 0.2175 (at node 110)
	maximum = 0.283 (at node 186)
Injected flit rate average = 0.249514
	minimum = 0.2245 (at node 104)
	maximum = 0.2755 (at node 101)
Accepted flit rate average= 0.248258
	minimum = 0.2175 (at node 110)
	maximum = 0.283 (at node 186)
Injected packet length average = 1
Accepted packet length average = 1
Total in-flight flits = 643 (0 measured)
latency change    = 0.000131473
throughput change = 0.00744249
Class 0:
Packet latency average = 9.86851
	minimum = 5
	maximum = 17
Network latency average = 9.86851
	minimum = 5
	maximum = 17
Slowest packet = 176144
Flit latency average = 9.86851
	minimum = 5
	maximum = 17
Slowest flit = 176144
Fragmentation average = 0
	minimum = 0
	maximum = 0
Injected packet rate average = 0.249977
	minimum = 0.213 (at node 85)
	maximum = 0.291 (at node 45)
Accepted packet rate average = 0.24982
	minimum = 0.209 (at node 115)
	maximum = 0.314 (at node 181)
Injected flit rate average = 0.249977
	minimum = 0.213 (at node 85)
	maximum = 0.291 (at node 45)
Accepted flit rate average= 0.24982
	minimum = 0.209 (at node 115)
	maximum = 0.314 (at node 181)
Injected packet length average = 1
Accepted packet length average = 1
Total in-flight flits = 683 (0 measured)
latency change    = 0.000553117
throughput change = 0.0062545
Warmed up ...Time used is 3000 cycles
Class 0:
Packet latency average = 9.86712
	minimum = 5
	maximum = 16
Network latency average = 9.86712
	minimum = 5
	maximum = 16
Slowest packet = 219909
Flit latency average = 9.86899
	minimum = 5
	maximum = 16
Slowest flit = 219909
Fragmentation average = 0
	minimum = 0
	maximum = 0
Injected packet rate average = 0.249883
	minimum = 0.211 (at node 154)
	maximum = 0.29 (at node 238)
Accepted packet rate average = 0.250156
	minimum = 0.207 (at node 114)
	maximum = 0.298 (at node 121)
Injected flit rate average = 0.249883
	minimum = 0.211 (at node 154)
	maximum = 0.29 (at node 238)
Accepted flit rate average= 0.250156
	minimum = 0.207 (at node 114)
	maximum = 0.298 (at node 121)
Injected packet length average = 1
Accepted packet length average = 1
Total in-flight flits = 613 (613 measured)
latency change    = 0.00014156
throughput change = 0.00134291
Class 0:
Packet latency average = 9.87091
	minimum = 5
	maximum = 16
Network latency average = 9.87091
	minimum = 5
	maximum = 16
Slowest packet = 219909
Flit latency average = 9.87183
	minimum = 5
	maximum = 16
Slowest flit = 219909
Fragmentation average = 0
	minimum = 0
	maximum = 0
Injected packet rate average = 0.249492
	minimum = 0.2145 (at node 42)
	maximum = 0.281 (at node 165)
Accepted packet rate average = 0.249562
	minimum = 0.2175 (at node 21)
	maximum = 0.2795 (at node 241)
Injected flit rate average = 0.249492
	minimum = 0.2145 (at node 42)
	maximum = 0.281 (at node 165)
Accepted flit rate average= 0.249562
	minimum = 0.2175 (at node 21)
	maximum = 0.2795 (at node 241)
Injected packet length average = 1
Accepted packet length average = 1
Total in-flight flits = 647 (647 measured)
latency change    = 0.000384498
throughput change = 0.00237916
Class 0:
Packet latency average = 9.87361
	minimum = 5
	maximum = 16
Network latency average = 9.87361
	minimum = 5
	maximum = 16
Slowest packet = 219909
Flit latency average = 9.87421
	minimum = 5
	maximum = 16
Slowest flit = 219909
Fragmentation average = 0
	minimum = 0
	maximum = 0
Injected packet rate average = 0.249921
	minimum = 0.217333 (at node 42)
	maximum = 0.273667 (at node 80)
Accepted packet rate average = 0.249924
	minimum = 0.222667 (at node 21)
	maximum = 0.276333 (at node 244)
Injected flit rate average = 0.249921
	minimum = 0.217333 (at node 42)
	maximum = 0.273667 (at node 80)
Accepted flit rate average= 0.249924
	minimum = 0.222667 (at node 21)
	maximum = 0.276333 (at node 244)
Injected packet length average = 1
Accepted packet length average = 1
Total in-flight flits = 680 (680 measured)
latency change    = 0.000272699
throughput change = 0.00144835
Draining all recorded packets ...
Draining remaining packets ...
Time taken is 6025 cycles
====== Overall Traffic Statistics ======
====== Traffic class 0 ======
Packet latency average = 9.87435 (1 samples)
	minimum = 5 (1 samples)
	maximum = 16 (1 samples)
Network latency average = 9.87435 (1 samples)
	minimum = 5 (1 samples)
	maximum = 16 (1 samples)
Flit latency average = 9.87474 (1 samples)
	minimum = 5 (1 samples)
	maximum = 16 (1 samples)
Fragmentation average = 0 (1 samples)
	minimum = 0 (1 samples)
	maximum = 0 (1 samples)
Injected packet rate average = 0.249921 (1 samples)
	minimum = 0.217333 (1 samples)
	maximum = 0.273667 (1 samples)
Accepted packet rate average = 0.249924 (1 samples)
	minimum = 0.222667 (1 samples)
	maximum = 0.276333 (1 samples)
Injected flit rate average = 0.249921 (1 samples)
	minimum = 0.217333 (1 samples)
	maximum = 0.273667 (1 samples)
Accepted flit rate average = 0.249924 (1 samples)
	minimum = 0.222667 (1 samples)
	maximum = 0.276333 (1 samples)
Injected packet size average = 1 (1 samples)
Accepted packet size average = 1 (1 samples)
Hops average = 1.93744 (1 samples)
Total run time 1.4828
