BEGIN Configuration File: ../../booksim2/src/examples/flatflyconfig
// $Id$

// Copyright (c) 2007-2015, Trustees of The Leland Stanford Junior University
// All rights reserved.
//
// Redistribution and use in source and binary forms, with or without
// modification, are permitted provided that the following conditions are met:
//
// Redistributions of source code must retain the above copyright notice, this
// list of conditions and the following disclaimer.
// Redistributions in binary form must reproduce the above copyright notice,
// this list of conditions and the following disclaimer in the documentation
// and/or other materials provided with the distribution.
//
// THIS SOFTWARE IS PROVIDED BY THE COPYRIGHT HOLDERS AND CONTRIBUTORS "AS IS"
// AND ANY EXPRESS OR IMPLIED WARRANTIES, INCLUDING, BUT NOT LIMITED TO, THE
// IMPLIED WARRANTIES OF MERCHANTABILITY AND FITNESS FOR A PARTICULAR PURPOSE
// ARE DISCLAIMED. IN NO EVENT SHALL THE COPYRIGHT OWNER OR CONTRIBUTORS BE
// LIABLE FOR ANY DIRECT, INDIRECT, INCIDENTAL, SPECIAL, EXEMPLARY, OR
// CONSEQUENTIAL DAMAGES (INCLUDING, BUT NOT LIMITED TO, PROCUREMENT OF
// SUBSTITUTE GOODS OR SERVICES; LOSS OF USE, DATA, OR PROFITS; OR BUSINESS
// INTERRUPTION) HOWEVER CAUSED AND ON ANY THEORY OF LIABILITY, WHETHER IN
// CONTRACT, STRICT LIABILITY, OR TORT (INCLUDING NEGLIGENCE OR OTHERWISE)
// ARISING IN ANY WAY OUT OF THE USE OF THIS SOFTWARE, EVEN IF ADVISED OF THE
// POSSIBILITY OF SUCH DAMAGE.

//A flattened butterfly configurate file with many tweaks from the
//default settings. 


// Flow control
// Total number of VCs must match the above assignments
num_vcs     = 2;
vc_buf_size = 16;

wait_for_tail_credit = 0;

//
// Router architectureq
//
vc_allocator = islip; 
sw_allocator = islip;
alloc_iters  = 3;

credit_delay   = 0;
routing_delay  = 1;
vc_alloc_delay = 1;
sw_alloc_delay = 1;
st_final_delay = 1;

input_speedup     = 1;
output_speedup    = 1;
internal_speedup  = 1.6;

//
// Traffic
//

warmup_periods = 3;

sample_period  = 1000;  

sim_count          = 1;

traffic       = uniform;


// Flatfly 
//
// #node = k^(n+1)
//
// x, y, specifies the arrangement of routers in x and y dim
// xr, yr specifiies the arayment of clients in a router
//
topology = flatfly;
subnets = 1;

c  = 16;
k  = 16;
n  = 1;

x  = 16;
y  = 1;
xr = 16;
yr = 1;

use_noc_latency = 0;

//
// Routing
//

routing_function = ran_min;

//1: batch mode, 0: injection mode
use_read_write = 0;

//for injection mode
packet_size = 1;
injection_rate = 0.1;

//for batch mode
read_request_size=1;
write_request_size=1;
read_reply_size=1;
write_reply_size=1;

read_request_begin_vc  = 0;
read_request_end_vc    = 3;
write_reply_begin_vc   = 4;
write_reply_end_vc     = 7;
read_reply_begin_vc    = 4;
read_reply_end_vc      = 7;
write_request_begin_vc = 0;
write_request_end_vc   = 3;

//latency: drains all packet, throughput:no drain?
sim_type = latency;

END Configuration File: ../../booksim2/src/examples/flatflyconfig
OVERRIDE Parameter: sim_type=latency
OVERRIDE Parameter: traffic=uniform
OVERRIDE Parameter: injection_rate={0.225}
 Flat Bufferfly 
 k = 16 n = 1 c = 16
 each switch - total radix =  31
 # of switches = 16
 # of channels = 240
 # of nodes ( size of network ) = 256
Class 0:
Packet latency average = 9.80858
	minimum = 5
	maximum = 17
Network latency average = 9.80858
	minimum = 5
	maximum = 17
Slowest packet = 11101
Flit latency average = 9.80858
	minimum = 5
	maximum = 17
Slowest flit = 11101
Fragmentation average = 0
	minimum = 0
	maximum = 0
Injected packet rate average = 0.224215
	minimum = 0.192 (at node 104)
	maximum = 0.263 (at node 22)
Accepted packet rate average = 0.221797
	minimum = 0.184 (at node 95)
	maximum = 0.265 (at node 147)
Injected flit rate average = 0.224215
	minimum = 0.192 (at node 104)
	maximum = 0.263 (at node 22)
Accepted flit rate average= 0.221797
	minimum = 0.184 (at node 95)
	maximum = 0.265 (at node 147)
Injected packet length average = 1
Accepted packet length average = 1
Total in-flight flits = 619 (0 measured)
latency change    = 1
throughput change = 1
Class 0:
Packet latency average = 9.80929
	minimum = 5
	maximum = 17
Network latency average = 9.80929
	minimum = 5
	maximum = 17
Slowest packet = 11101
Flit latency average = 9.80929
	minimum = 5
	maximum = 17
Slowest flit = 11101
Fragmentation average = 0
	minimum = 0
	maximum = 0
Injected packet rate average = 0.224602
	minimum = 0.2015 (at node 104)
	maximum = 0.2475 (at node 101)
Accepted packet rate average = 0.223479
	minimum = 0.1915 (at node 108)
	maximum = 0.253 (at node 147)
Injected flit rate average = 0.224602
	minimum = 0.2015 (at node 104)
	maximum = 0.2475 (at node 101)
Accepted flit rate average= 0.223479
	minimum = 0.1915 (at node 108)
	maximum = 0.253 (at node 147)
Injected packet length average = 1
Accepted packet length average = 1
Total in-flight flits = 575 (0 measured)
latency change    = 7.28938e-05
throughput change = 0.00752484
Class 0:
Packet latency average = 9.81017
	minimum = 5
	maximum = 17
Network latency average = 9.81017
	minimum = 5
	maximum = 17
Slowest packet = 134796
Flit latency average = 9.81017
	minimum = 5
	maximum = 17
Slowest flit = 134796
Fragmentation average = 0
	minimum = 0
	maximum = 0
Injected packet rate average = 0.225203
	minimum = 0.194 (at node 85)
	maximum = 0.263 (at node 45)
Accepted packet rate average = 0.225113
	minimum = 0.182 (at node 148)
	maximum = 0.27 (at node 181)
Injected flit rate average = 0.225203
	minimum = 0.194 (at node 85)
	maximum = 0.263 (at node 45)
Accepted flit rate average= 0.225113
	minimum = 0.182 (at node 148)
	maximum = 0.27 (at node 181)
Injected packet length average = 1
Accepted packet length average = 1
Total in-flight flits = 598 (0 measured)
latency change    = 8.89914e-05
throughput change = 0.00726197
Warmed up ...Time used is 3000 cycles
Class 0:
Packet latency average = 9.81903
	minimum = 5
	maximum = 15
Network latency average = 9.81903
	minimum = 5
	maximum = 15
Slowest packet = 176432
Flit latency average = 9.82027
	minimum = 5
	maximum = 15
Slowest flit = 176432
Fragmentation average = 0
	minimum = 0
	maximum = 0
Injected packet rate average = 0.224676
	minimum = 0.184 (at node 154)
	maximum = 0.276 (at node 238)
Accepted packet rate average = 0.224793
	minimum = 0.176 (at node 155)
	maximum = 0.261 (at node 152)
Injected flit rate average = 0.224676
	minimum = 0.184 (at node 154)
	maximum = 0.276 (at node 238)
Accepted flit rate average= 0.224793
	minimum = 0.176 (at node 155)
	maximum = 0.261 (at node 152)
Injected packet length average = 1
Accepted packet length average = 1
Total in-flight flits = 568 (568 measured)
latency change    = 0.000902945
throughput change = 0.00142492
Class 0:
Packet latency average = 9.81162
	minimum = 5
	maximum = 17
Network latency average = 9.81162
	minimum = 5
	maximum = 17
Slowest packet = 263425
Flit latency average = 9.81228
	minimum = 5
	maximum = 17
Slowest flit = 263425
Fragmentation average = 0
	minimum = 0
	maximum = 0
Injected packet rate average = 0.224525
	minimum = 0.195 (at node 42)
	maximum = 0.2525 (at node 165)
Accepted packet rate average = 0.224518
	minimum = 0.198 (at node 114)
	maximum = 0.249 (at node 201)
Injected flit rate average = 0.224525
	minimum = 0.195 (at node 42)
	maximum = 0.2525 (at node 165)
Accepted flit rate average= 0.224518
	minimum = 0.198 (at node 114)
	maximum = 0.249 (at node 201)
Injected packet length average = 1
Accepted packet length average = 1
Total in-flight flits = 602 (602 measured)
latency change    = 0.000755161
throughput change = 0.00122659
Class 0:
Packet latency average = 9.81339
	minimum = 5
	maximum = 17
Network latency average = 9.81339
	minimum = 5
	maximum = 17
Slowest packet = 263425
Flit latency average = 9.81383
	minimum = 5
	maximum = 17
Slowest flit = 263425
Fragmentation average = 0
	minimum = 0
	maximum = 0
Injected packet rate average = 0.224876
	minimum = 0.198667 (at node 42)
	maximum = 0.248333 (at node 80)
Accepted packet rate average = 0.224868
	minimum = 0.194 (at node 21)
	maximum = 0.248 (at node 220)
Injected flit rate average = 0.224876
	minimum = 0.198667 (at node 42)
	maximum = 0.248333 (at node 80)
Accepted flit rate average= 0.224868
	minimum = 0.194 (at node 21)
	maximum = 0.248 (at node 220)
Injected packet length average = 1
Accepted packet length average = 1
Total in-flight flits = 604 (604 measured)
latency change    = 0.000180647
throughput change = 0.00156052
Draining all recorded packets ...
Draining remaining packets ...
Time taken is 6028 cycles
====== Overall Traffic Statistics ======
====== Traffic class 0 ======
Packet latency average = 9.81384 (1 samples)
	minimum = 5 (1 samples)
	maximum = 17 (1 samples)
Network latency average = 9.81384 (1 samples)
	minimum = 5 (1 samples)
	maximum = 17 (1 samples)
Flit latency average = 9.81388 (1 samples)
	minimum = 5 (1 samples)
	maximum = 17 (1 samples)
Fragmentation average = 0 (1 samples)
	minimum = 0 (1 samples)
	maximum = 0 (1 samples)
Injected packet rate average = 0.224876 (1 samples)
	minimum = 0.198667 (1 samples)
	maximum = 0.248333 (1 samples)
Accepted packet rate average = 0.224868 (1 samples)
	minimum = 0.194 (1 samples)
	maximum = 0.248 (1 samples)
Injected flit rate average = 0.224876 (1 samples)
	minimum = 0.198667 (1 samples)
	maximum = 0.248333 (1 samples)
Accepted flit rate average = 0.224868 (1 samples)
	minimum = 0.194 (1 samples)
	maximum = 0.248 (1 samples)
Injected packet size average = 1 (1 samples)
Accepted packet size average = 1 (1 samples)
Hops average = 1.93782 (1 samples)
Total run time 1.33589
