BEGIN Configuration File: ../../booksim2/src/examples/flatflyconfig
// $Id$

// Copyright (c) 2007-2015, Trustees of The Leland Stanford Junior University
// All rights reserved.
//
// Redistribution and use in source and binary forms, with or without
// modification, are permitted provided that the following conditions are met:
//
// Redistributions of source code must retain the above copyright notice, this
// list of conditions and the following disclaimer.
// Redistributions in binary form must reproduce the above copyright notice,
// this list of conditions and the following disclaimer in the documentation
// and/or other materials provided with the distribution.
//
// THIS SOFTWARE IS PROVIDED BY THE COPYRIGHT HOLDERS AND CONTRIBUTORS "AS IS"
// AND ANY EXPRESS OR IMPLIED WARRANTIES, INCLUDING, BUT NOT LIMITED TO, THE
// IMPLIED WARRANTIES OF MERCHANTABILITY AND FITNESS FOR A PARTICULAR PURPOSE
// ARE DISCLAIMED. IN NO EVENT SHALL THE COPYRIGHT OWNER OR CONTRIBUTORS BE
// LIABLE FOR ANY DIRECT, INDIRECT, INCIDENTAL, SPECIAL, EXEMPLARY, OR
// CONSEQUENTIAL DAMAGES (INCLUDING, BUT NOT LIMITED TO, PROCUREMENT OF
// SUBSTITUTE GOODS OR SERVICES; LOSS OF USE, DATA, OR PROFITS; OR BUSINESS
// INTERRUPTION) HOWEVER CAUSED AND ON ANY THEORY OF LIABILITY, WHETHER IN
// CONTRACT, STRICT LIABILITY, OR TORT (INCLUDING NEGLIGENCE OR OTHERWISE)
// ARISING IN ANY WAY OUT OF THE USE OF THIS SOFTWARE, EVEN IF ADVISED OF THE
// POSSIBILITY OF SUCH DAMAGE.

//A flattened butterfly configurate file with many tweaks from the
//default settings. 


// Flow control
// Total number of VCs must match the above assignments
num_vcs     = 2;
vc_buf_size = 16;

wait_for_tail_credit = 0;

//
// Router architectureq
//
vc_allocator = islip; 
sw_allocator = islip;
alloc_iters  = 3;

credit_delay   = 0;
routing_delay  = 1;
vc_alloc_delay = 1;
sw_alloc_delay = 1;
st_final_delay = 1;

input_speedup     = 1;
output_speedup    = 1;
internal_speedup  = 1.6;

//
// Traffic
//

warmup_periods = 3;

sample_period  = 1000;  

sim_count          = 1;

traffic       = uniform;


// Flatfly 
//
// #node = k^(n+1)
//
// x, y, specifies the arrangement of routers in x and y dim
// xr, yr specifiies the arayment of clients in a router
//
topology = flatfly;
subnets = 1;

c  = 16;
k  = 16;
n  = 1;

x  = 16;
y  = 1;
xr = 16;
yr = 1;

use_noc_latency = 0;

//
// Routing
//

routing_function = ran_min;

//1: batch mode, 0: injection mode
use_read_write = 0;

//for injection mode
packet_size = 1;
injection_rate = 0.1;

//for batch mode
read_request_size=1;
write_request_size=1;
read_reply_size=1;
write_reply_size=1;

read_request_begin_vc  = 0;
read_request_end_vc    = 3;
write_reply_begin_vc   = 4;
write_reply_end_vc     = 7;
read_reply_begin_vc    = 4;
read_reply_end_vc      = 7;
write_request_begin_vc = 0;
write_request_end_vc   = 3;

//latency: drains all packet, throughput:no drain?
sim_type = latency;

END Configuration File: ../../booksim2/src/examples/flatflyconfig
OVERRIDE Parameter: sim_type=latency
OVERRIDE Parameter: traffic=uniform
OVERRIDE Parameter: injection_rate={0.925}
 Flat Bufferfly 
 k = 16 n = 1 c = 16
 each switch - total radix =  31
 # of switches = 16
 # of channels = 240
 # of nodes ( size of network ) = 256
Class 0:
Packet latency average = 95.6623
	minimum = 5
	maximum = 249
Network latency average = 54.7996
	minimum = 5
	maximum = 135
Slowest packet = 44539
Flit latency average = 54.7996
	minimum = 5
	maximum = 135
Slowest flit = 147680
Fragmentation average = 0
	minimum = 0
	maximum = 0
Injected packet rate average = 0.808254
	minimum = 0.755 (at node 229)
	maximum = 0.844 (at node 177)
Accepted packet rate average = 0.759625
	minimum = 0.688 (at node 110)
	maximum = 0.835 (at node 65)
Injected flit rate average = 0.808254
	minimum = 0.755 (at node 229)
	maximum = 0.844 (at node 177)
Accepted flit rate average= 0.759625
	minimum = 0.688 (at node 110)
	maximum = 0.835 (at node 65)
Injected packet length average = 1
Accepted packet length average = 1
Total in-flight flits = 12531 (0 measured)
latency change    = 1
throughput change = 1
Class 0:
Packet latency average = 178.786
	minimum = 5
	maximum = 421
Network latency average = 58.8497
	minimum = 5
	maximum = 135
Slowest packet = 44539
Flit latency average = 58.8497
	minimum = 5
	maximum = 135
Slowest flit = 147680
Fragmentation average = 0
	minimum = 0
	maximum = 0
Injected packet rate average = 0.788816
	minimum = 0.763 (at node 244)
	maximum = 0.814 (at node 177)
Accepted packet rate average = 0.764973
	minimum = 0.7125 (at node 195)
	maximum = 0.8185 (at node 68)
Injected flit rate average = 0.788816
	minimum = 0.763 (at node 244)
	maximum = 0.814 (at node 177)
Accepted flit rate average= 0.764973
	minimum = 0.7125 (at node 195)
	maximum = 0.8185 (at node 68)
Injected packet length average = 1
Accepted packet length average = 1
Total in-flight flits = 12298 (0 measured)
latency change    = 0.464934
throughput change = 0.00699065
Class 0:
Packet latency average = 429.687
	minimum = 271
	maximum = 607
Network latency average = 62.4214
	minimum = 30
	maximum = 125
Slowest packet = 394648
Flit latency average = 62.4214
	minimum = 30
	maximum = 125
Slowest flit = 393108
Fragmentation average = 0
	minimum = 0
	maximum = 0
Injected packet rate average = 0.771289
	minimum = 0.734 (at node 152)
	maximum = 0.806 (at node 26)
Accepted packet rate average = 0.770441
	minimum = 0.69 (at node 246)
	maximum = 0.87 (at node 174)
Injected flit rate average = 0.771289
	minimum = 0.734 (at node 152)
	maximum = 0.806 (at node 26)
Accepted flit rate average= 0.770441
	minimum = 0.69 (at node 246)
	maximum = 0.87 (at node 174)
Injected packet length average = 1
Accepted packet length average = 1
Total in-flight flits = 12507 (0 measured)
latency change    = 0.583915
throughput change = 0.0070982
Warmed up ...Time used is 3000 cycles
Class 0:
Packet latency average = 602.565
	minimum = 415
	maximum = 785
Network latency average = 62.5783
	minimum = 31
	maximum = 134
Slowest packet = 601496
Flit latency average = 62.7882
	minimum = 31
	maximum = 134
Slowest flit = 653542
Fragmentation average = 0
	minimum = 0
	maximum = 0
Injected packet rate average = 0.768086
	minimum = 0.73 (at node 42)
	maximum = 0.802 (at node 206)
Accepted packet rate average = 0.768789
	minimum = 0.688 (at node 126)
	maximum = 0.846 (at node 52)
Injected flit rate average = 0.768086
	minimum = 0.73 (at node 42)
	maximum = 0.802 (at node 206)
Accepted flit rate average= 0.768789
	minimum = 0.688 (at node 126)
	maximum = 0.846 (at node 52)
Injected packet length average = 1
Accepted packet length average = 1
Total in-flight flits = 12328 (12328 measured)
latency change    = 0.286903
throughput change = 0.00214928
Average latency for class 0 exceeded 500 cycles. Aborting simulation.
Too many sample periods needed to converge
Simulation unstable, ending ...
Total run time 4.57987
