BEGIN Configuration File: ../../booksim2/src/examples/flatflyconfig
// $Id$

// Copyright (c) 2007-2015, Trustees of The Leland Stanford Junior University
// All rights reserved.
//
// Redistribution and use in source and binary forms, with or without
// modification, are permitted provided that the following conditions are met:
//
// Redistributions of source code must retain the above copyright notice, this
// list of conditions and the following disclaimer.
// Redistributions in binary form must reproduce the above copyright notice,
// this list of conditions and the following disclaimer in the documentation
// and/or other materials provided with the distribution.
//
// THIS SOFTWARE IS PROVIDED BY THE COPYRIGHT HOLDERS AND CONTRIBUTORS "AS IS"
// AND ANY EXPRESS OR IMPLIED WARRANTIES, INCLUDING, BUT NOT LIMITED TO, THE
// IMPLIED WARRANTIES OF MERCHANTABILITY AND FITNESS FOR A PARTICULAR PURPOSE
// ARE DISCLAIMED. IN NO EVENT SHALL THE COPYRIGHT OWNER OR CONTRIBUTORS BE
// LIABLE FOR ANY DIRECT, INDIRECT, INCIDENTAL, SPECIAL, EXEMPLARY, OR
// CONSEQUENTIAL DAMAGES (INCLUDING, BUT NOT LIMITED TO, PROCUREMENT OF
// SUBSTITUTE GOODS OR SERVICES; LOSS OF USE, DATA, OR PROFITS; OR BUSINESS
// INTERRUPTION) HOWEVER CAUSED AND ON ANY THEORY OF LIABILITY, WHETHER IN
// CONTRACT, STRICT LIABILITY, OR TORT (INCLUDING NEGLIGENCE OR OTHERWISE)
// ARISING IN ANY WAY OUT OF THE USE OF THIS SOFTWARE, EVEN IF ADVISED OF THE
// POSSIBILITY OF SUCH DAMAGE.

//A flattened butterfly configurate file with many tweaks from the
//default settings. 


// Flow control
// Total number of VCs must match the above assignments
num_vcs     = 2;
vc_buf_size = 16;

wait_for_tail_credit = 0;

//
// Router architectureq
//
vc_allocator = islip; 
sw_allocator = islip;
alloc_iters  = 3;

credit_delay   = 0;
routing_delay  = 1;
vc_alloc_delay = 1;
sw_alloc_delay = 1;
st_final_delay = 1;

input_speedup     = 1;
output_speedup    = 1;
internal_speedup  = 1.6;

//
// Traffic
//

warmup_periods = 3;

sample_period  = 1000;  

sim_count          = 1;

traffic       = uniform;


// Flatfly 
//
// #node = k^(n+1)
//
// x, y, specifies the arrangement of routers in x and y dim
// xr, yr specifiies the arayment of clients in a router
//
topology = flatfly;
subnets = 1;

c  = 16;
k  = 16;
n  = 1;

x  = 16;
y  = 1;
xr = 16;
yr = 1;

use_noc_latency = 0;

//
// Routing
//

routing_function = ran_min;

//1: batch mode, 0: injection mode
use_read_write = 0;

//for injection mode
packet_size = 1;
injection_rate = 0.1;

//for batch mode
read_request_size=1;
write_request_size=1;
read_reply_size=1;
write_reply_size=1;

read_request_begin_vc  = 0;
read_request_end_vc    = 3;
write_reply_begin_vc   = 4;
write_reply_end_vc     = 7;
read_reply_begin_vc    = 4;
read_reply_end_vc      = 7;
write_request_begin_vc = 0;
write_request_end_vc   = 3;

//latency: drains all packet, throughput:no drain?
sim_type = latency;

END Configuration File: ../../booksim2/src/examples/flatflyconfig
OVERRIDE Parameter: sim_type=latency
OVERRIDE Parameter: traffic=uniform
OVERRIDE Parameter: injection_rate={0.1}
 Flat Bufferfly 
 k = 16 n = 1 c = 16
 each switch - total radix =  31
 # of switches = 16
 # of channels = 240
 # of nodes ( size of network ) = 256
Class 0:
Packet latency average = 9.54577
	minimum = 5
	maximum = 15
Network latency average = 9.54577
	minimum = 5
	maximum = 15
Slowest packet = 5495
Flit latency average = 9.54577
	minimum = 5
	maximum = 15
Slowest flit = 5495
Fragmentation average = 0
	minimum = 0
	maximum = 0
Injected packet rate average = 0.0991563
	minimum = 0.072 (at node 166)
	maximum = 0.13 (at node 22)
Accepted packet rate average = 0.0981133
	minimum = 0.069 (at node 15)
	maximum = 0.122 (at node 248)
Injected flit rate average = 0.0991563
	minimum = 0.072 (at node 166)
	maximum = 0.13 (at node 22)
Accepted flit rate average= 0.0981133
	minimum = 0.069 (at node 15)
	maximum = 0.122 (at node 248)
Injected packet length average = 1
Accepted packet length average = 1
Total in-flight flits = 267 (0 measured)
latency change    = 1
throughput change = 1
Class 0:
Packet latency average = 9.53445
	minimum = 5
	maximum = 15
Network latency average = 9.53445
	minimum = 5
	maximum = 15
Slowest packet = 5495
Flit latency average = 9.53445
	minimum = 5
	maximum = 15
Slowest flit = 5495
Fragmentation average = 0
	minimum = 0
	maximum = 0
Injected packet rate average = 0.0992461
	minimum = 0.0785 (at node 9)
	maximum = 0.116 (at node 26)
Accepted packet rate average = 0.0987734
	minimum = 0.0835 (at node 15)
	maximum = 0.1215 (at node 147)
Injected flit rate average = 0.0992461
	minimum = 0.0785 (at node 9)
	maximum = 0.116 (at node 26)
Accepted flit rate average= 0.0987734
	minimum = 0.0835 (at node 15)
	maximum = 0.1215 (at node 147)
Injected packet length average = 1
Accepted packet length average = 1
Total in-flight flits = 242 (0 measured)
latency change    = 0.00118726
throughput change = 0.00668354
Class 0:
Packet latency average = 9.53729
	minimum = 5
	maximum = 13
Network latency average = 9.53729
	minimum = 5
	maximum = 13
Slowest packet = 50789
Flit latency average = 9.53729
	minimum = 5
	maximum = 13
Slowest flit = 50789
Fragmentation average = 0
	minimum = 0
	maximum = 0
Injected packet rate average = 0.10057
	minimum = 0.075 (at node 210)
	maximum = 0.129 (at node 78)
Accepted packet rate average = 0.100504
	minimum = 0.077 (at node 106)
	maximum = 0.128 (at node 155)
Injected flit rate average = 0.10057
	minimum = 0.075 (at node 210)
	maximum = 0.129 (at node 78)
Accepted flit rate average= 0.100504
	minimum = 0.077 (at node 106)
	maximum = 0.128 (at node 155)
Injected packet length average = 1
Accepted packet length average = 1
Total in-flight flits = 259 (0 measured)
latency change    = 0.000298472
throughput change = 0.0172179
Warmed up ...Time used is 3000 cycles
Class 0:
Packet latency average = 9.54902
	minimum = 5
	maximum = 14
Network latency average = 9.54902
	minimum = 5
	maximum = 14
Slowest packet = 82754
Flit latency average = 9.55061
	minimum = 5
	maximum = 14
Slowest flit = 82754
Fragmentation average = 0
	minimum = 0
	maximum = 0
Injected packet rate average = 0.10023
	minimum = 0.074 (at node 92)
	maximum = 0.13 (at node 189)
Accepted packet rate average = 0.100258
	minimum = 0.073 (at node 216)
	maximum = 0.133 (at node 55)
Injected flit rate average = 0.10023
	minimum = 0.074 (at node 92)
	maximum = 0.13 (at node 189)
Accepted flit rate average= 0.100258
	minimum = 0.073 (at node 216)
	maximum = 0.133 (at node 55)
Injected packet length average = 1
Accepted packet length average = 1
Total in-flight flits = 252 (252 measured)
latency change    = 0.00122833
throughput change = 0.00245461
Class 0:
Packet latency average = 9.54161
	minimum = 5
	maximum = 14
Network latency average = 9.54161
	minimum = 5
	maximum = 14
Slowest packet = 82754
Flit latency average = 9.54244
	minimum = 5
	maximum = 14
Slowest flit = 82754
Fragmentation average = 0
	minimum = 0
	maximum = 0
Injected packet rate average = 0.100168
	minimum = 0.0825 (at node 14)
	maximum = 0.121 (at node 165)
Accepted packet rate average = 0.100201
	minimum = 0.078 (at node 59)
	maximum = 0.1205 (at node 14)
Injected flit rate average = 0.100168
	minimum = 0.0825 (at node 14)
	maximum = 0.121 (at node 165)
Accepted flit rate average= 0.100201
	minimum = 0.078 (at node 59)
	maximum = 0.1205 (at node 14)
Injected packet length average = 1
Accepted packet length average = 1
Total in-flight flits = 242 (242 measured)
latency change    = 0.000776678
throughput change = 0.000565269
Class 0:
Packet latency average = 9.54146
	minimum = 5
	maximum = 14
Network latency average = 9.54146
	minimum = 5
	maximum = 14
Slowest packet = 82754
Flit latency average = 9.54201
	minimum = 5
	maximum = 14
Slowest flit = 82754
Fragmentation average = 0
	minimum = 0
	maximum = 0
Injected packet rate average = 0.100443
	minimum = 0.0813333 (at node 225)
	maximum = 0.114 (at node 8)
Accepted packet rate average = 0.100477
	minimum = 0.0833333 (at node 59)
	maximum = 0.116333 (at node 8)
Injected flit rate average = 0.100443
	minimum = 0.0813333 (at node 225)
	maximum = 0.114 (at node 8)
Accepted flit rate average= 0.100477
	minimum = 0.0833333 (at node 59)
	maximum = 0.116333 (at node 8)
Injected packet length average = 1
Accepted packet length average = 1
Total in-flight flits = 233 (233 measured)
latency change    = 1.59299e-05
throughput change = 0.00274084
Draining all recorded packets ...
Draining remaining packets ...
Time taken is 6024 cycles
====== Overall Traffic Statistics ======
====== Traffic class 0 ======
Packet latency average = 9.54173 (1 samples)
	minimum = 5 (1 samples)
	maximum = 14 (1 samples)
Network latency average = 9.54173 (1 samples)
	minimum = 5 (1 samples)
	maximum = 14 (1 samples)
Flit latency average = 9.5423 (1 samples)
	minimum = 5 (1 samples)
	maximum = 14 (1 samples)
Fragmentation average = 0 (1 samples)
	minimum = 0 (1 samples)
	maximum = 0 (1 samples)
Injected packet rate average = 0.100443 (1 samples)
	minimum = 0.0813333 (1 samples)
	maximum = 0.114 (1 samples)
Accepted packet rate average = 0.100477 (1 samples)
	minimum = 0.0833333 (1 samples)
	maximum = 0.116333 (1 samples)
Injected flit rate average = 0.100443 (1 samples)
	minimum = 0.0813333 (1 samples)
	maximum = 0.114 (1 samples)
Accepted flit rate average = 0.100477 (1 samples)
	minimum = 0.0833333 (1 samples)
	maximum = 0.116333 (1 samples)
Injected packet size average = 1 (1 samples)
Accepted packet size average = 1 (1 samples)
Hops average = 1.938 (1 samples)
Total run time 0.720471
