BEGIN Configuration File: ../../booksim2/src/examples/flatflyconfig
// $Id$

// Copyright (c) 2007-2015, Trustees of The Leland Stanford Junior University
// All rights reserved.
//
// Redistribution and use in source and binary forms, with or without
// modification, are permitted provided that the following conditions are met:
//
// Redistributions of source code must retain the above copyright notice, this
// list of conditions and the following disclaimer.
// Redistributions in binary form must reproduce the above copyright notice,
// this list of conditions and the following disclaimer in the documentation
// and/or other materials provided with the distribution.
//
// THIS SOFTWARE IS PROVIDED BY THE COPYRIGHT HOLDERS AND CONTRIBUTORS "AS IS"
// AND ANY EXPRESS OR IMPLIED WARRANTIES, INCLUDING, BUT NOT LIMITED TO, THE
// IMPLIED WARRANTIES OF MERCHANTABILITY AND FITNESS FOR A PARTICULAR PURPOSE
// ARE DISCLAIMED. IN NO EVENT SHALL THE COPYRIGHT OWNER OR CONTRIBUTORS BE
// LIABLE FOR ANY DIRECT, INDIRECT, INCIDENTAL, SPECIAL, EXEMPLARY, OR
// CONSEQUENTIAL DAMAGES (INCLUDING, BUT NOT LIMITED TO, PROCUREMENT OF
// SUBSTITUTE GOODS OR SERVICES; LOSS OF USE, DATA, OR PROFITS; OR BUSINESS
// INTERRUPTION) HOWEVER CAUSED AND ON ANY THEORY OF LIABILITY, WHETHER IN
// CONTRACT, STRICT LIABILITY, OR TORT (INCLUDING NEGLIGENCE OR OTHERWISE)
// ARISING IN ANY WAY OUT OF THE USE OF THIS SOFTWARE, EVEN IF ADVISED OF THE
// POSSIBILITY OF SUCH DAMAGE.

//A flattened butterfly configurate file with many tweaks from the
//default settings. 


// Flow control
// Total number of VCs must match the above assignments
num_vcs     = 2;
vc_buf_size = 16;

wait_for_tail_credit = 0;

//
// Router architectureq
//
vc_allocator = islip; 
sw_allocator = islip;
alloc_iters  = 3;

credit_delay   = 0;
routing_delay  = 1;
vc_alloc_delay = 1;
sw_alloc_delay = 1;
st_final_delay = 1;

input_speedup     = 1;
output_speedup    = 1;
internal_speedup  = 1.6;

//
// Traffic
//

warmup_periods = 3;

sample_period  = 1000;  

sim_count          = 1;

traffic       = uniform;


// Flatfly 
//
// #node = k^(n+1)
//
// x, y, specifies the arrangement of routers in x and y dim
// xr, yr specifiies the arayment of clients in a router
//
topology = flatfly;
subnets = 1;

c  = 16;
k  = 16;
n  = 1;

x  = 16;
y  = 1;
xr = 16;
yr = 1;

use_noc_latency = 0;

//
// Routing
//

routing_function = ran_min;

//1: batch mode, 0: injection mode
use_read_write = 0;

//for injection mode
packet_size = 1;
injection_rate = 0.1;

//for batch mode
read_request_size=1;
write_request_size=1;
read_reply_size=1;
write_reply_size=1;

read_request_begin_vc  = 0;
read_request_end_vc    = 3;
write_reply_begin_vc   = 4;
write_reply_end_vc     = 7;
read_reply_begin_vc    = 4;
read_reply_end_vc      = 7;
write_request_begin_vc = 0;
write_request_end_vc   = 3;

//latency: drains all packet, throughput:no drain?
sim_type = latency;

END Configuration File: ../../booksim2/src/examples/flatflyconfig
OVERRIDE Parameter: sim_type=latency
OVERRIDE Parameter: traffic=uniform
OVERRIDE Parameter: injection_rate={0.475}
 Flat Bufferfly 
 k = 16 n = 1 c = 16
 each switch - total radix =  31
 # of switches = 16
 # of channels = 240
 # of nodes ( size of network ) = 256
Class 0:
Packet latency average = 10.8649
	minimum = 5
	maximum = 26
Network latency average = 10.8649
	minimum = 5
	maximum = 26
Slowest packet = 54077
Flit latency average = 10.8649
	minimum = 5
	maximum = 26
Slowest flit = 54077
Fragmentation average = 0
	minimum = 0
	maximum = 0
Injected packet rate average = 0.475027
	minimum = 0.431 (at node 173)
	maximum = 0.516 (at node 74)
Accepted packet rate average = 0.469715
	minimum = 0.41 (at node 108)
	maximum = 0.534 (at node 65)
Injected flit rate average = 0.475027
	minimum = 0.431 (at node 173)
	maximum = 0.516 (at node 74)
Accepted flit rate average= 0.469715
	minimum = 0.41 (at node 108)
	maximum = 0.534 (at node 65)
Injected packet length average = 1
Accepted packet length average = 1
Total in-flight flits = 1360 (0 measured)
latency change    = 1
throughput change = 1
Class 0:
Packet latency average = 10.8572
	minimum = 5
	maximum = 29
Network latency average = 10.8572
	minimum = 5
	maximum = 29
Slowest packet = 150577
Flit latency average = 10.8572
	minimum = 5
	maximum = 29
Slowest flit = 150577
Fragmentation average = 0
	minimum = 0
	maximum = 0
Injected packet rate average = 0.475396
	minimum = 0.4475 (at node 229)
	maximum = 0.502 (at node 159)
Accepted packet rate average = 0.472824
	minimum = 0.4335 (at node 110)
	maximum = 0.511 (at node 14)
Injected flit rate average = 0.475396
	minimum = 0.4475 (at node 229)
	maximum = 0.502 (at node 159)
Accepted flit rate average= 0.472824
	minimum = 0.4335 (at node 110)
	maximum = 0.511 (at node 14)
Injected packet length average = 1
Accepted packet length average = 1
Total in-flight flits = 1317 (0 measured)
latency change    = 0.000701903
throughput change = 0.00657618
Class 0:
Packet latency average = 10.8308
	minimum = 5
	maximum = 24
Network latency average = 10.8308
	minimum = 5
	maximum = 24
Slowest packet = 300405
Flit latency average = 10.8308
	minimum = 5
	maximum = 24
Slowest flit = 300405
Fragmentation average = 0
	minimum = 0
	maximum = 0
Injected packet rate average = 0.475023
	minimum = 0.429 (at node 252)
	maximum = 0.516 (at node 45)
Accepted packet rate average = 0.474883
	minimum = 0.402 (at node 21)
	maximum = 0.532 (at node 180)
Injected flit rate average = 0.475023
	minimum = 0.429 (at node 252)
	maximum = 0.516 (at node 45)
Accepted flit rate average= 0.474883
	minimum = 0.402 (at node 21)
	maximum = 0.532 (at node 180)
Injected packet length average = 1
Accepted packet length average = 1
Total in-flight flits = 1353 (0 measured)
latency change    = 0.00244306
throughput change = 0.00433495
Warmed up ...Time used is 3000 cycles
Class 0:
Packet latency average = 10.84
	minimum = 5
	maximum = 24
Network latency average = 10.84
	minimum = 5
	maximum = 24
Slowest packet = 425247
Flit latency average = 10.8446
	minimum = 5
	maximum = 24
Slowest flit = 425247
Fragmentation average = 0
	minimum = 0
	maximum = 0
Injected packet rate average = 0.475707
	minimum = 0.435 (at node 150)
	maximum = 0.519 (at node 61)
Accepted packet rate average = 0.475953
	minimum = 0.415 (at node 20)
	maximum = 0.541 (at node 174)
Injected flit rate average = 0.475707
	minimum = 0.435 (at node 150)
	maximum = 0.519 (at node 61)
Accepted flit rate average= 0.475953
	minimum = 0.415 (at node 20)
	maximum = 0.541 (at node 174)
Injected packet length average = 1
Accepted packet length average = 1
Total in-flight flits = 1290 (1290 measured)
latency change    = 0.000847106
throughput change = 0.00224878
Class 0:
Packet latency average = 10.8432
	minimum = 5
	maximum = 28
Network latency average = 10.8432
	minimum = 5
	maximum = 28
Slowest packet = 500631
Flit latency average = 10.8455
	minimum = 5
	maximum = 28
Slowest flit = 500631
Fragmentation average = 0
	minimum = 0
	maximum = 0
Injected packet rate average = 0.475123
	minimum = 0.4365 (at node 42)
	maximum = 0.5015 (at node 241)
Accepted packet rate average = 0.475119
	minimum = 0.431 (at node 20)
	maximum = 0.5265 (at node 174)
Injected flit rate average = 0.475123
	minimum = 0.4365 (at node 42)
	maximum = 0.5015 (at node 241)
Accepted flit rate average= 0.475119
	minimum = 0.431 (at node 20)
	maximum = 0.5265 (at node 174)
Injected packet length average = 1
Accepted packet length average = 1
Total in-flight flits = 1355 (1355 measured)
latency change    = 0.000294766
throughput change = 0.00175532
Class 0:
Packet latency average = 10.8434
	minimum = 5
	maximum = 28
Network latency average = 10.8434
	minimum = 5
	maximum = 28
Slowest packet = 500631
Flit latency average = 10.8449
	minimum = 5
	maximum = 28
Slowest flit = 500631
Fragmentation average = 0
	minimum = 0
	maximum = 0
Injected packet rate average = 0.474699
	minimum = 0.447667 (at node 42)
	maximum = 0.500667 (at node 241)
Accepted packet rate average = 0.47473
	minimum = 0.443333 (at node 105)
	maximum = 0.520667 (at node 121)
Injected flit rate average = 0.474699
	minimum = 0.447667 (at node 42)
	maximum = 0.500667 (at node 241)
Accepted flit rate average= 0.47473
	minimum = 0.443333 (at node 105)
	maximum = 0.520667 (at node 121)
Injected packet length average = 1
Accepted packet length average = 1
Total in-flight flits = 1329 (1329 measured)
latency change    = 1.74631e-05
throughput change = 0.000818721
Draining all recorded packets ...
Draining remaining packets ...
Time taken is 6034 cycles
====== Overall Traffic Statistics ======
====== Traffic class 0 ======
Packet latency average = 10.8444 (1 samples)
	minimum = 5 (1 samples)
	maximum = 28 (1 samples)
Network latency average = 10.8444 (1 samples)
	minimum = 5 (1 samples)
	maximum = 28 (1 samples)
Flit latency average = 10.845 (1 samples)
	minimum = 5 (1 samples)
	maximum = 28 (1 samples)
Fragmentation average = 0 (1 samples)
	minimum = 0 (1 samples)
	maximum = 0 (1 samples)
Injected packet rate average = 0.474699 (1 samples)
	minimum = 0.447667 (1 samples)
	maximum = 0.500667 (1 samples)
Accepted packet rate average = 0.47473 (1 samples)
	minimum = 0.443333 (1 samples)
	maximum = 0.520667 (1 samples)
Injected flit rate average = 0.474699 (1 samples)
	minimum = 0.447667 (1 samples)
	maximum = 0.500667 (1 samples)
Accepted flit rate average = 0.47473 (1 samples)
	minimum = 0.443333 (1 samples)
	maximum = 0.520667 (1 samples)
Injected packet size average = 1 (1 samples)
Accepted packet size average = 1 (1 samples)
Hops average = 1.93803 (1 samples)
Total run time 2.73991
