BEGIN Configuration File: ../../booksim2/src/examples/flatflyconfig
// $Id$

// Copyright (c) 2007-2015, Trustees of The Leland Stanford Junior University
// All rights reserved.
//
// Redistribution and use in source and binary forms, with or without
// modification, are permitted provided that the following conditions are met:
//
// Redistributions of source code must retain the above copyright notice, this
// list of conditions and the following disclaimer.
// Redistributions in binary form must reproduce the above copyright notice,
// this list of conditions and the following disclaimer in the documentation
// and/or other materials provided with the distribution.
//
// THIS SOFTWARE IS PROVIDED BY THE COPYRIGHT HOLDERS AND CONTRIBUTORS "AS IS"
// AND ANY EXPRESS OR IMPLIED WARRANTIES, INCLUDING, BUT NOT LIMITED TO, THE
// IMPLIED WARRANTIES OF MERCHANTABILITY AND FITNESS FOR A PARTICULAR PURPOSE
// ARE DISCLAIMED. IN NO EVENT SHALL THE COPYRIGHT OWNER OR CONTRIBUTORS BE
// LIABLE FOR ANY DIRECT, INDIRECT, INCIDENTAL, SPECIAL, EXEMPLARY, OR
// CONSEQUENTIAL DAMAGES (INCLUDING, BUT NOT LIMITED TO, PROCUREMENT OF
// SUBSTITUTE GOODS OR SERVICES; LOSS OF USE, DATA, OR PROFITS; OR BUSINESS
// INTERRUPTION) HOWEVER CAUSED AND ON ANY THEORY OF LIABILITY, WHETHER IN
// CONTRACT, STRICT LIABILITY, OR TORT (INCLUDING NEGLIGENCE OR OTHERWISE)
// ARISING IN ANY WAY OUT OF THE USE OF THIS SOFTWARE, EVEN IF ADVISED OF THE
// POSSIBILITY OF SUCH DAMAGE.

//A flattened butterfly configurate file with many tweaks from the
//default settings. 


// Flow control
// Total number of VCs must match the above assignments
num_vcs     = 2;
vc_buf_size = 16;

wait_for_tail_credit = 0;

//
// Router architectureq
//
vc_allocator = islip; 
sw_allocator = islip;
alloc_iters  = 3;

credit_delay   = 0;
routing_delay  = 1;
vc_alloc_delay = 1;
sw_alloc_delay = 1;
st_final_delay = 1;

input_speedup     = 1;
output_speedup    = 1;
internal_speedup  = 1.6;

//
// Traffic
//

warmup_periods = 3;

sample_period  = 1000;  

sim_count          = 1;

traffic       = uniform;


// Flatfly 
//
// #node = k^(n+1)
//
// x, y, specifies the arrangement of routers in x and y dim
// xr, yr specifiies the arayment of clients in a router
//
topology = flatfly;
subnets = 1;

c  = 16;
k  = 16;
n  = 1;

x  = 16;
y  = 1;
xr = 16;
yr = 1;

use_noc_latency = 0;

//
// Routing
//

routing_function = ran_min;

//1: batch mode, 0: injection mode
use_read_write = 0;

//for injection mode
packet_size = 1;
injection_rate = 0.1;

//for batch mode
read_request_size=1;
write_request_size=1;
read_reply_size=1;
write_reply_size=1;

read_request_begin_vc  = 0;
read_request_end_vc    = 3;
write_reply_begin_vc   = 4;
write_reply_end_vc     = 7;
read_reply_begin_vc    = 4;
read_reply_end_vc      = 7;
write_request_begin_vc = 0;
write_request_end_vc   = 3;

//latency: drains all packet, throughput:no drain?
sim_type = latency;

END Configuration File: ../../booksim2/src/examples/flatflyconfig
OVERRIDE Parameter: sim_type=latency
OVERRIDE Parameter: traffic=uniform
OVERRIDE Parameter: injection_rate={0.7}
 Flat Bufferfly 
 k = 16 n = 1 c = 16
 each switch - total radix =  31
 # of switches = 16
 # of channels = 240
 # of nodes ( size of network ) = 256
Class 0:
Packet latency average = 17.816
	minimum = 5
	maximum = 62
Network latency average = 17.816
	minimum = 5
	maximum = 62
Slowest packet = 167475
Flit latency average = 17.816
	minimum = 5
	maximum = 62
Slowest flit = 167475
Fragmentation average = 0
	minimum = 0
	maximum = 0
Injected packet rate average = 0.699313
	minimum = 0.652 (at node 172)
	maximum = 0.736 (at node 26)
Accepted packet rate average = 0.68575
	minimum = 0.617 (at node 110)
	maximum = 0.756 (at node 65)
Injected flit rate average = 0.699313
	minimum = 0.652 (at node 172)
	maximum = 0.736 (at node 26)
Accepted flit rate average= 0.68575
	minimum = 0.617 (at node 110)
	maximum = 0.756 (at node 65)
Injected packet length average = 1
Accepted packet length average = 1
Total in-flight flits = 3472 (0 measured)
latency change    = 1
throughput change = 1
Class 0:
Packet latency average = 18.3476
	minimum = 5
	maximum = 62
Network latency average = 18.3476
	minimum = 5
	maximum = 62
Slowest packet = 167475
Flit latency average = 18.3476
	minimum = 5
	maximum = 62
Slowest flit = 167475
Fragmentation average = 0
	minimum = 0
	maximum = 0
Injected packet rate average = 0.69924
	minimum = 0.667 (at node 172)
	maximum = 0.729 (at node 215)
Accepted packet rate average = 0.692465
	minimum = 0.6305 (at node 21)
	maximum = 0.738 (at node 68)
Injected flit rate average = 0.69924
	minimum = 0.667 (at node 172)
	maximum = 0.729 (at node 215)
Accepted flit rate average= 0.692465
	minimum = 0.6305 (at node 21)
	maximum = 0.738 (at node 68)
Injected packet length average = 1
Accepted packet length average = 1
Total in-flight flits = 3469 (0 measured)
latency change    = 0.0289714
throughput change = 0.00969702
Class 0:
Packet latency average = 18.95
	minimum = 5
	maximum = 60
Network latency average = 18.95
	minimum = 5
	maximum = 60
Slowest packet = 397806
Flit latency average = 18.95
	minimum = 5
	maximum = 60
Slowest flit = 397806
Fragmentation average = 0
	minimum = 0
	maximum = 0
Injected packet rate average = 0.699387
	minimum = 0.657 (at node 146)
	maximum = 0.75 (at node 149)
Accepted packet rate average = 0.699031
	minimum = 0.633 (at node 20)
	maximum = 0.793 (at node 174)
Injected flit rate average = 0.699387
	minimum = 0.657 (at node 146)
	maximum = 0.75 (at node 149)
Accepted flit rate average= 0.699031
	minimum = 0.633 (at node 20)
	maximum = 0.793 (at node 174)
Injected packet length average = 1
Accepted packet length average = 1
Total in-flight flits = 3560 (0 measured)
latency change    = 0.0317921
throughput change = 0.00939358
Warmed up ...Time used is 3000 cycles
Class 0:
Packet latency average = 18.8434
	minimum = 5
	maximum = 61
Network latency average = 18.8434
	minimum = 5
	maximum = 61
Slowest packet = 555921
Flit latency average = 18.9544
	minimum = 5
	maximum = 61
Slowest flit = 555921
Fragmentation average = 0
	minimum = 0
	maximum = 0
Injected packet rate average = 0.700887
	minimum = 0.654 (at node 153)
	maximum = 0.739 (at node 99)
Accepted packet rate average = 0.701273
	minimum = 0.631 (at node 239)
	maximum = 0.788 (at node 255)
Injected flit rate average = 0.700887
	minimum = 0.654 (at node 153)
	maximum = 0.739 (at node 99)
Accepted flit rate average= 0.701273
	minimum = 0.631 (at node 239)
	maximum = 0.788 (at node 255)
Injected packet length average = 1
Accepted packet length average = 1
Total in-flight flits = 3461 (3461 measured)
latency change    = 0.00566114
throughput change = 0.00319731
Class 0:
Packet latency average = 18.9324
	minimum = 5
	maximum = 61
Network latency average = 18.9324
	minimum = 5
	maximum = 61
Slowest packet = 555921
Flit latency average = 18.9871
	minimum = 5
	maximum = 61
Slowest flit = 555921
Fragmentation average = 0
	minimum = 0
	maximum = 0
Injected packet rate average = 0.700346
	minimum = 0.6715 (at node 92)
	maximum = 0.7305 (at node 86)
Accepted packet rate average = 0.700922
	minimum = 0.6455 (at node 186)
	maximum = 0.7565 (at node 225)
Injected flit rate average = 0.700346
	minimum = 0.6715 (at node 92)
	maximum = 0.7305 (at node 86)
Accepted flit rate average= 0.700922
	minimum = 0.6455 (at node 186)
	maximum = 0.7565 (at node 225)
Injected packet length average = 1
Accepted packet length average = 1
Total in-flight flits = 3265 (3265 measured)
latency change    = 0.00470356
throughput change = 0.000501572
Class 0:
Packet latency average = 18.9011
	minimum = 5
	maximum = 64
Network latency average = 18.9011
	minimum = 5
	maximum = 64
Slowest packet = 1043559
Flit latency average = 18.9378
	minimum = 5
	maximum = 64
Slowest flit = 1043559
Fragmentation average = 0
	minimum = 0
	maximum = 0
Injected packet rate average = 0.700161
	minimum = 0.675 (at node 243)
	maximum = 0.725333 (at node 142)
Accepted packet rate average = 0.700374
	minimum = 0.654667 (at node 237)
	maximum = 0.744 (at node 241)
Injected flit rate average = 0.700161
	minimum = 0.675 (at node 243)
	maximum = 0.725333 (at node 142)
Accepted flit rate average= 0.700374
	minimum = 0.654667 (at node 237)
	maximum = 0.744 (at node 241)
Injected packet length average = 1
Accepted packet length average = 1
Total in-flight flits = 3397 (3397 measured)
latency change    = 0.00165442
throughput change = 0.000782692
Draining all recorded packets ...
Draining remaining packets ...
Time taken is 6099 cycles
====== Overall Traffic Statistics ======
====== Traffic class 0 ======
Packet latency average = 18.9302 (1 samples)
	minimum = 5 (1 samples)
	maximum = 64 (1 samples)
Network latency average = 18.9302 (1 samples)
	minimum = 5 (1 samples)
	maximum = 64 (1 samples)
Flit latency average = 18.9633 (1 samples)
	minimum = 5 (1 samples)
	maximum = 64 (1 samples)
Fragmentation average = 0 (1 samples)
	minimum = 0 (1 samples)
	maximum = 0 (1 samples)
Injected packet rate average = 0.700161 (1 samples)
	minimum = 0.675 (1 samples)
	maximum = 0.725333 (1 samples)
Accepted packet rate average = 0.700374 (1 samples)
	minimum = 0.654667 (1 samples)
	maximum = 0.744 (1 samples)
Injected flit rate average = 0.700161 (1 samples)
	minimum = 0.675 (1 samples)
	maximum = 0.725333 (1 samples)
Accepted flit rate average = 0.700374 (1 samples)
	minimum = 0.654667 (1 samples)
	maximum = 0.744 (1 samples)
Injected packet size average = 1 (1 samples)
Accepted packet size average = 1 (1 samples)
Hops average = 1.93754 (1 samples)
Total run time 3.97439
