BEGIN Configuration File: ../../booksim2/src/examples/flatflyconfig
// $Id$

// Copyright (c) 2007-2015, Trustees of The Leland Stanford Junior University
// All rights reserved.
//
// Redistribution and use in source and binary forms, with or without
// modification, are permitted provided that the following conditions are met:
//
// Redistributions of source code must retain the above copyright notice, this
// list of conditions and the following disclaimer.
// Redistributions in binary form must reproduce the above copyright notice,
// this list of conditions and the following disclaimer in the documentation
// and/or other materials provided with the distribution.
//
// THIS SOFTWARE IS PROVIDED BY THE COPYRIGHT HOLDERS AND CONTRIBUTORS "AS IS"
// AND ANY EXPRESS OR IMPLIED WARRANTIES, INCLUDING, BUT NOT LIMITED TO, THE
// IMPLIED WARRANTIES OF MERCHANTABILITY AND FITNESS FOR A PARTICULAR PURPOSE
// ARE DISCLAIMED. IN NO EVENT SHALL THE COPYRIGHT OWNER OR CONTRIBUTORS BE
// LIABLE FOR ANY DIRECT, INDIRECT, INCIDENTAL, SPECIAL, EXEMPLARY, OR
// CONSEQUENTIAL DAMAGES (INCLUDING, BUT NOT LIMITED TO, PROCUREMENT OF
// SUBSTITUTE GOODS OR SERVICES; LOSS OF USE, DATA, OR PROFITS; OR BUSINESS
// INTERRUPTION) HOWEVER CAUSED AND ON ANY THEORY OF LIABILITY, WHETHER IN
// CONTRACT, STRICT LIABILITY, OR TORT (INCLUDING NEGLIGENCE OR OTHERWISE)
// ARISING IN ANY WAY OUT OF THE USE OF THIS SOFTWARE, EVEN IF ADVISED OF THE
// POSSIBILITY OF SUCH DAMAGE.

//A flattened butterfly configurate file with many tweaks from the
//default settings. 


// Flow control
// Total number of VCs must match the above assignments
num_vcs     = 2;
vc_buf_size = 16;

wait_for_tail_credit = 0;

//
// Router architectureq
//
vc_allocator = islip; 
sw_allocator = islip;
alloc_iters  = 3;

credit_delay   = 0;
routing_delay  = 1;
vc_alloc_delay = 1;
sw_alloc_delay = 1;
st_final_delay = 1;

input_speedup     = 1;
output_speedup    = 1;
internal_speedup  = 1.6;

//
// Traffic
//

warmup_periods = 3;

sample_period  = 1000;  

sim_count          = 1;

traffic       = bitrev;


// Flatfly 
//
// #node = k^(n+1)
//
// x, y, specifies the arrangement of routers in x and y dim
// xr, yr specifiies the arayment of clients in a router
//
topology = flatfly;
subnets = 1;

c  = 16;
k  = 16;
n  = 1;

x  = 16;
y  = 1;
xr = 16;
yr = 1;

use_noc_latency = 0;

//
// Routing
//

routing_function = ran_min;

//1: batch mode, 0: injection mode
use_read_write = 0;

//for injection mode
packet_size = 1;
injection_rate = 0.1;

//for batch mode
read_request_size=1;
write_request_size=1;
read_reply_size=1;
write_reply_size=1;

read_request_begin_vc  = 0;
read_request_end_vc    = 3;
write_reply_begin_vc   = 4;
write_reply_end_vc     = 7;
read_reply_begin_vc    = 4;
read_reply_end_vc      = 7;
write_request_begin_vc = 0;
write_request_end_vc   = 3;

//latency: drains all packet, throughput:no drain?
sim_type = latency;

watch_out = -;;END Configuration File: ../../booksim2/src/examples/flatflyconfig
OVERRIDE Parameter: routing_function=ugal
OVERRIDE Parameter: traffic=bitcomp
OVERRIDE Parameter: injection_rate={0.25}
OVERRIDE Parameter: c=16
OVERRIDE Parameter: k=16
OVERRIDE Parameter: x=16
OVERRIDE Parameter: xr=16
OVERRIDE Parameter: sim_type=latency
OVERRIDE Parameter: seed=1
 Flat Bufferfly 
 k = 16 n = 1 c = 16
 each switch - total radix =  31
 # of switches = 16
 # of channels = 240
 # of nodes ( size of network ) = 256
0 | node2 | Enqueuing flit 1 (packet 1) at time 0.
0 | traffic_manager | Finding output VC for flit 1:
0 | traffic_manager |   Selected output VC 0.
0 | node2 | Injecting flit 1 into subnet 0 at time 0 with priority 0.
1 | network_0/network_0_fchan_ingress2 | Beginning channel traversal for flit 1 with delay 1.
1 | network_0/network_0_fchan_ingress2 | Completed channel traversal for flit 1.
2 | network_0/router_0 | Received flit 1 from channel at input 2.
2 | network_0/router_0 | Adding flit 1 to VC 0 at input 2 (state: idle, empty).
2 | network_0/router_0/buf_2/vc_0 | Changing state from idle to routing.
2 | network_0/router_0 | Beginning routing for VC 0 at input 2 (front: 1).
2 | network_0/router_0 | Completed routing for VC 0 at input 2 (front: 1).
2 | network_0/router_0 |  MIN tmp_out_port: 302 | network_0/router_0 |  NONMIN tmp_out_port: 26
2 | network_0/router_0/buf_2/vc_0 | Changing state from routing to vc_alloc.
3 | network_0/router_0 | Beginning VC allocation for VC 0 at input 2 (front: 1).
3 | network_0/router_0 |   Requesting VC 1 at output 30 (in_pri: 0, out_pri: 0).
3 | network_0/router_0/vc_allocator | Input requests = [ 2 -> [ 61@0 ]  4 -> [ 61@0 ]  8 -> [ 61@0 ]  10 -> [ 61@0 ]  12 -> [ 61@0 ]  20 -> [ 61@0 ]  26 -> [ 61@0 ]  ], output requests = [ 61 -> [ 2@0 4@0 8@0 10@0 12@0 20@0 26@0 ]  ].
3 | network_0/router_0/vc_allocator | Input grants = [ 2 -> 61  ], output grants = [ 61 -> 2  ].
3 | network_0/router_0 | VC allocation failed for VC 0 at input 2.
3 | network_0/router_0 | Completed VC allocation for VC 0 at input 2 (front: 1).
3 | network_0/router_0 |   No output VC allocated.
3 | network_0/router_0 | Beginning VC allocation for VC 0 at input 2 (front: 1).
3 | network_0/router_0 |   VC 1 at output 30 is in use by VC 0 at input 1 (front flit: 0).
3 | network_0/router_0 | Completed VC allocation for VC 0 at input 2 (front: 1).
3 | network_0/router_0 |   No output VC allocated.
4 | network_0/router_0 | Beginning VC allocation for VC 0 at input 2 (front: 1).
4 | network_0/router_0 |   Requesting VC 1 at output 30 (in_pri: 0, out_pri: 0).
4 | network_0/router_0/vc_allocator | Input requests = [ 4 -> [ 61@0 ]  8 -> [ 61@0 ]  9 -> [ 61@0 ]  10 -> [ 61@0 ]  11 -> [ 61@0 ]  12 -> [ 61@0 ]  13 -> [ 61@0 ]  20 -> [ 61@0 ]  21 -> [ 61@0 ]  26 -> [ 61@0 ]  27 -> [ 61@0 ]  ], output requests = [ 61 -> [ 4@0 8@0 9@0 10@0 11@0 12@0 13@0 20@0 21@0 26@0 27@0 ]  ].
4 | network_0/router_0/vc_allocator | Input grants = [ 4 -> 61  ], output grants = [ 61 -> 4  ].
4 | network_0/router_0 | Assigning VC 1 at output 30 to VC 0 at input 2.
4 | network_0/router_0 | Completed VC allocation for VC 0 at input 2 (front: 1).
4 | network_0/router_0 |   Acquiring assigned VC 1 at output 30.
4 | network_0/router_0/buf_2/vc_0 | Changing state from vc_alloc to active.
4 | network_0/router_0 | Beginning switch allocation for VC 0 at input 2 (front: 1).
4 | network_0/router_0 |   Requesting output 30.0 (non-spec, pri: 0).
4 | network_0/router_0/sw_allocator | Input requests = [ 2 -> [ 30@0 ]  ], output requests = [ 30 -> [ 2@0 ]  ].
4 | network_0/router_0/sw_allocator | Input grants = [ 2 -> 30  ], output grants = [ 30 -> 2  ].
4 | network_0/router_0 | Assigning output 30.0 to VC 0 at input 2.0.
4 | network_0/router_0 | Completed switch allocation for VC 0 at input 2 (front: 1).
4 | network_0/router_0 |   Scheduling switch connection from input 2.0 to output 30.0.
5 | network_0/router_0 | Beginning crossbar traversal for flit 1 from input 2.0 to output 30.0.
5 | network_0/router_0 | Completed crossbar traversal for flit 1 from input 2.0 to output 30.0.
5 | network_0/router_0 | Buffering flit 1 at output 30.
5 | network_0/router_0 | Sending flit 1 to channel at output 30.
6 | network_0/network_0_fchan_14 | Beginning channel traversal for flit 1 with delay 1.
6 | network_0/network_0_fchan_14 | Completed channel traversal for flit 1.
7 | network_0/router_15 | Received flit 1 from channel at input 16.
7 | network_0/router_15 | Adding flit 1 to VC 1 at input 16 (state: active, front: 0).
7 | network_0/router_15/buf_16/vc_1 | Changing state from active to routing.
8 | network_0/router_15 | Beginning routing for VC 1 at input 16 (front: 1).
8 | network_0/router_15 | Completed routing for VC 1 at input 16 (front: 1).
8 | network_0/router_15/buf_16/vc_1 | Changing state from routing to vc_alloc.
8 | network_0/router_15 | Beginning VC allocation for VC 1 at input 16 (front: 1).
8 | network_0/router_15 |   Requesting VC 0 at output 13 (in_pri: 0, out_pri: 0).
8 | network_0/router_15 |   Requesting VC 1 at output 13 (in_pri: 0, out_pri: 0).
8 | network_0/router_15/vc_allocator | Input requests = [ 4 -> [ 44@0 ]  6 -> [ 58@0 ]  31 -> [ 48@0 ]  33 -> [ 26@0 27@0 ]  42 -> [ 53@0 ]  ], output requests = [ 26 -> [ 33@0 ]  27 -> [ 33@0 ]  44 -> [ 4@0 ]  48 -> [ 31@0 ]  53 -> [ 42@0 ]  58 -> [ 6@0 ]  ].
8 | network_0/router_15/vc_allocator | Input grants = [ 4 -> 44  6 -> 58  31 -> 48  33 -> 26  42 -> 53  ], output grants = [ 26 -> 33  44 -> 4  48 -> 31  53 -> 42  58 -> 6  ].
8 | network_0/router_15 | Assigning VC 0 at output 13 to VC 1 at input 16.
8 | network_0/router_15 | Completed VC allocation for VC 1 at input 16 (front: 1).
8 | network_0/router_15 |   Acquiring assigned VC 0 at output 13.
8 | network_0/router_15/buf_16/vc_1 | Changing state from vc_alloc to active.
9 | network_0/router_15 | Beginning switch allocation for VC 1 at input 16 (front: 1).
9 | network_0/router_15 |   Requesting output 13.0 (non-spec, pri: 0).
9 | network_0/router_15/sw_allocator | Input requests = [ 2 -> [ 22@0 ]  3 -> [ 29@0 ]  15 -> [ 24@0 ]  16 -> [ 13@0 ]  21 -> [ 26@0 ]  ], output requests = [ 13 -> [ 16@0 ]  22 -> [ 2@0 ]  24 -> [ 15@0 ]  26 -> [ 21@0 ]  29 -> [ 3@0 ]  ].
9 | network_0/router_15/sw_allocator | Input grants = [ 2 -> 22  3 -> 29  15 -> 24  16 -> 13  21 -> 26  ], output grants = [ 13 -> 16  22 -> 2  24 -> 15  26 -> 21  29 -> 3  ].
9 | network_0/router_15 | Assigning output 13.0 to VC 1 at input 16.0.
9 | network_0/router_15 | Completed switch allocation for VC 1 at input 16 (front: 1).
9 | network_0/router_15 |   Scheduling switch connection from input 16.0 to output 13.0.
9 | network_0/router_15 | Beginning crossbar traversal for flit 1 from input 16.0 to output 13.0.
9 | network_0/router_15 | Completed crossbar traversal for flit 1 from input 16.0 to output 13.0.
9 | network_0/router_15 | Buffering flit 1 at output 13.
9 | network_0/router_15 | Sending flit 1 to channel at output 13.
10 | network_0/network_0_fchan_egress253 | Beginning channel traversal for flit 1 with delay 1.
10 | network_0/network_0_fchan_egress253 | Completed channel traversal for flit 1.
11 | node253 | Ejecting flit 1 (packet 1) from VC 0.
11 | node253 | Injecting credit for VC 0 into subnet 0.
11 | node253 | Retiring flit 1 (packet 1, src = 2, dest = 253, hops = 2, flat = 11).
11 | node253 | Retiring packet 1 (plat = 11, nlat = 11, frag = 0, src = 2, dest = 253).
Class 0:
Packet latency average = 24.6051
	minimum = 10
	maximum = 265
Network latency average = 24.5129
	minimum = 10
	maximum = 265
Slowest packet = 36672
Flit latency average = 24.5129
	minimum = 10
	maximum = 265
Slowest flit = 36672
Fragmentation average = 0
	minimum = 0
	maximum = 0
Injected packet rate average = 0.249781
	minimum = 0.218 (at node 163)
	maximum = 0.29 (at node 194)
Accepted packet rate average = 0.242063
	minimum = 0.198 (at node 244)
	maximum = 0.284 (at node 61)
Injected flit rate average = 0.249781
	minimum = 0.218 (at node 163)
	maximum = 0.29 (at node 194)
Accepted flit rate average= 0.242063
	minimum = 0.198 (at node 244)
	maximum = 0.284 (at node 61)
Injected packet length average = 1
Accepted packet length average = 1
Total in-flight flits = 1977 (0 measured)
latency change    = 1
throughput change = 1
Class 0:
Packet latency average = 26.6054
	minimum = 10
	maximum = 382
Network latency average = 26.3614
	minimum = 10
	maximum = 327
Slowest packet = 60821
Flit latency average = 26.3614
	minimum = 10
	maximum = 327
Slowest flit = 71171
Fragmentation average = 0
	minimum = 0
	maximum = 0
Injected packet rate average = 0.249807
	minimum = 0.224 (at node 160)
	maximum = 0.2825 (at node 252)
Accepted packet rate average = 0.246377
	minimum = 0.222 (at node 48)
	maximum = 0.2805 (at node 3)
Injected flit rate average = 0.249807
	minimum = 0.224 (at node 160)
	maximum = 0.2825 (at node 252)
Accepted flit rate average= 0.246377
	minimum = 0.222 (at node 48)
	maximum = 0.2805 (at node 3)
Injected packet length average = 1
Accepted packet length average = 1
Total in-flight flits = 1758 (0 measured)
latency change    = 0.0751839
throughput change = 0.0175116
Class 0:
Packet latency average = 32.1026
	minimum = 13
	maximum = 404
Network latency average = 31.5451
	minimum = 13
	maximum = 317
Slowest packet = 113962
Flit latency average = 31.5451
	minimum = 13
	maximum = 317
Slowest flit = 166003
Fragmentation average = 0
	minimum = 0
	maximum = 0
Injected packet rate average = 0.249277
	minimum = 0.201 (at node 209)
	maximum = 0.287 (at node 30)
Accepted packet rate average = 0.24673
	minimum = 0.193 (at node 46)
	maximum = 0.309 (at node 48)
Injected flit rate average = 0.249277
	minimum = 0.201 (at node 209)
	maximum = 0.287 (at node 30)
Accepted flit rate average= 0.24673
	minimum = 0.193 (at node 46)
	maximum = 0.309 (at node 48)
Injected packet length average = 1
Accepted packet length average = 1
Total in-flight flits = 2413 (0 measured)
latency change    = 0.17124
throughput change = 0.0014328
Warmed up ...Time used is 3000 cycles
Class 0:
Packet latency average = 39.8269
	minimum = 13
	maximum = 386
Network latency average = 38.6377
	minimum = 13
	maximum = 372
Slowest packet = 206374
Flit latency average = 39.9588
	minimum = 13
	maximum = 414
Slowest flit = 185555
Fragmentation average = 0
	minimum = 0
	maximum = 0
Injected packet rate average = 0.250023
	minimum = 0.214 (at node 175)
	maximum = 0.302 (at node 27)
Accepted packet rate average = 0.249328
	minimum = 0.207 (at node 124)
	maximum = 0.328 (at node 228)
Injected flit rate average = 0.250023
	minimum = 0.214 (at node 175)
	maximum = 0.302 (at node 27)
Accepted flit rate average= 0.249328
	minimum = 0.207 (at node 124)
	maximum = 0.328 (at node 228)
Injected packet length average = 1
Accepted packet length average = 1
Total in-flight flits = 2596 (2596 measured)
latency change    = 0.193947
throughput change = 0.0104186
Class 0:
Packet latency average = 42.7584
	minimum = 13
	maximum = 569
Network latency average = 40.1659
	minimum = 13
	maximum = 445
Slowest packet = 236324
Flit latency average = 40.7976
	minimum = 13
	maximum = 445
Slowest flit = 236324
Fragmentation average = 0
	minimum = 0
	maximum = 0
Injected packet rate average = 0.249861
	minimum = 0.219 (at node 141)
	maximum = 0.2775 (at node 27)
Accepted packet rate average = 0.249314
	minimum = 0.2075 (at node 167)
	maximum = 0.2915 (at node 228)
Injected flit rate average = 0.249861
	minimum = 0.219 (at node 141)
	maximum = 0.2775 (at node 27)
Accepted flit rate average= 0.249314
	minimum = 0.2075 (at node 167)
	maximum = 0.2915 (at node 228)
Injected packet length average = 1
Accepted packet length average = 1
Total in-flight flits = 2708 (2708 measured)
latency change    = 0.0685593
throughput change = 5.48379e-05
Class 0:
Packet latency average = 45.1262
	minimum = 13
	maximum = 577
Network latency average = 40.7851
	minimum = 13
	maximum = 450
Slowest packet = 236324
Flit latency average = 41.1977
	minimum = 13
	maximum = 450
Slowest flit = 296872
Fragmentation average = 0
	minimum = 0
	maximum = 0
Injected packet rate average = 0.250026
	minimum = 0.222667 (at node 141)
	maximum = 0.272667 (at node 97)
Accepted packet rate average = 0.24977
	minimum = 0.214333 (at node 114)
	maximum = 0.280333 (at node 12)
Injected flit rate average = 0.250026
	minimum = 0.222667 (at node 141)
	maximum = 0.272667 (at node 97)
Accepted flit rate average= 0.24977
	minimum = 0.214333 (at node 114)
	maximum = 0.280333 (at node 12)
Injected packet length average = 1
Accepted packet length average = 1
Total in-flight flits = 2620 (2620 measured)
latency change    = 0.0524703
throughput change = 0.00182199
Class 0:
Packet latency average = 45.7026
	minimum = 13
	maximum = 668
Network latency average = 40.4925
	minimum = 13
	maximum = 450
Slowest packet = 236324
Flit latency average = 40.8044
	minimum = 13
	maximum = 450
Slowest flit = 296872
Fragmentation average = 0
	minimum = 0
	maximum = 0
Injected packet rate average = 0.249942
	minimum = 0.22175 (at node 213)
	maximum = 0.27075 (at node 97)
Accepted packet rate average = 0.249964
	minimum = 0.217 (at node 42)
	maximum = 0.27375 (at node 228)
Injected flit rate average = 0.249942
	minimum = 0.22175 (at node 213)
	maximum = 0.27075 (at node 97)
Accepted flit rate average= 0.249964
	minimum = 0.217 (at node 42)
	maximum = 0.27375 (at node 228)
Injected packet length average = 1
Accepted packet length average = 1
Total in-flight flits = 2403 (2403 measured)
latency change    = 0.012613
throughput change = 0.000777456
Class 0:
Packet latency average = 44.9978
	minimum = 13
	maximum = 668
Network latency average = 39.3791
	minimum = 13
	maximum = 470
Slowest packet = 236324
Flit latency average = 39.6369
	minimum = 13
	maximum = 470
Slowest flit = 446148
Fragmentation average = 0
	minimum = 0
	maximum = 0
Injected packet rate average = 0.250025
	minimum = 0.228 (at node 213)
	maximum = 0.271 (at node 97)
Accepted packet rate average = 0.250064
	minimum = 0.224 (at node 42)
	maximum = 0.2722 (at node 158)
Injected flit rate average = 0.250025
	minimum = 0.228 (at node 213)
	maximum = 0.271 (at node 97)
Accepted flit rate average= 0.250064
	minimum = 0.224 (at node 42)
	maximum = 0.2722 (at node 158)
Injected packet length average = 1
Accepted packet length average = 1
Total in-flight flits = 2368 (2368 measured)
latency change    = 0.0156626
throughput change = 0.000400679
Class 0:
Packet latency average = 44.5218
	minimum = 13
	maximum = 700
Network latency average = 38.754
	minimum = 13
	maximum = 470
Slowest packet = 236324
Flit latency average = 38.9729
	minimum = 13
	maximum = 470
Slowest flit = 446148
Fragmentation average = 0
	minimum = 0
	maximum = 0
Injected packet rate average = 0.249931
	minimum = 0.233333 (at node 144)
	maximum = 0.2705 (at node 97)
Accepted packet rate average = 0.24997
	minimum = 0.230833 (at node 174)
	maximum = 0.271 (at node 158)
Injected flit rate average = 0.249931
	minimum = 0.233333 (at node 144)
	maximum = 0.2705 (at node 97)
Accepted flit rate average= 0.24997
	minimum = 0.230833 (at node 174)
	maximum = 0.271 (at node 158)
Injected packet length average = 1
Accepted packet length average = 1
Total in-flight flits = 2364 (2364 measured)
latency change    = 0.0106929
throughput change = 0.000376087
Draining all recorded packets ...
Draining remaining packets ...
Time taken is 9649 cycles
====== Overall Traffic Statistics ======
====== Traffic class 0 ======
Packet latency average = 45.2276 (1 samples)
	minimum = 13 (1 samples)
	maximum = 700 (1 samples)
Network latency average = 39.1558 (1 samples)
	minimum = 13 (1 samples)
	maximum = 470 (1 samples)
Flit latency average = 39.0976 (1 samples)
	minimum = 13 (1 samples)
	maximum = 470 (1 samples)
Fragmentation average = 0 (1 samples)
	minimum = 0 (1 samples)
	maximum = 0 (1 samples)
Injected packet rate average = 0.249931 (1 samples)
	minimum = 0.233333 (1 samples)
	maximum = 0.2705 (1 samples)
Accepted packet rate average = 0.24997 (1 samples)
	minimum = 0.230833 (1 samples)
	maximum = 0.271 (1 samples)
Injected flit rate average = 0.249931 (1 samples)
	minimum = 0.233333 (1 samples)
	maximum = 0.2705 (1 samples)
Accepted flit rate average = 0.24997 (1 samples)
	minimum = 0.230833 (1 samples)
	maximum = 0.271 (1 samples)
Injected packet size average = 1 (1 samples)
Accepted packet size average = 1 (1 samples)
Hops average = 2.87053 (1 samples)
Total run time 38.4203
