BEGIN Configuration File: ../../booksim2/src/examples/flatflyconfig
// $Id$

// Copyright (c) 2007-2015, Trustees of The Leland Stanford Junior University
// All rights reserved.
//
// Redistribution and use in source and binary forms, with or without
// modification, are permitted provided that the following conditions are met:
//
// Redistributions of source code must retain the above copyright notice, this
// list of conditions and the following disclaimer.
// Redistributions in binary form must reproduce the above copyright notice,
// this list of conditions and the following disclaimer in the documentation
// and/or other materials provided with the distribution.
//
// THIS SOFTWARE IS PROVIDED BY THE COPYRIGHT HOLDERS AND CONTRIBUTORS "AS IS"
// AND ANY EXPRESS OR IMPLIED WARRANTIES, INCLUDING, BUT NOT LIMITED TO, THE
// IMPLIED WARRANTIES OF MERCHANTABILITY AND FITNESS FOR A PARTICULAR PURPOSE
// ARE DISCLAIMED. IN NO EVENT SHALL THE COPYRIGHT OWNER OR CONTRIBUTORS BE
// LIABLE FOR ANY DIRECT, INDIRECT, INCIDENTAL, SPECIAL, EXEMPLARY, OR
// CONSEQUENTIAL DAMAGES (INCLUDING, BUT NOT LIMITED TO, PROCUREMENT OF
// SUBSTITUTE GOODS OR SERVICES; LOSS OF USE, DATA, OR PROFITS; OR BUSINESS
// INTERRUPTION) HOWEVER CAUSED AND ON ANY THEORY OF LIABILITY, WHETHER IN
// CONTRACT, STRICT LIABILITY, OR TORT (INCLUDING NEGLIGENCE OR OTHERWISE)
// ARISING IN ANY WAY OUT OF THE USE OF THIS SOFTWARE, EVEN IF ADVISED OF THE
// POSSIBILITY OF SUCH DAMAGE.

//A flattened butterfly configurate file with many tweaks from the
//default settings. 


// Flow control
// Total number of VCs must match the above assignments
num_vcs     = 2;
vc_buf_size = 16;

wait_for_tail_credit = 0;

//
// Router architectureq
//
vc_allocator = islip; 
sw_allocator = islip;
alloc_iters  = 3;

credit_delay   = 0;
routing_delay  = 1;
vc_alloc_delay = 1;
sw_alloc_delay = 1;
st_final_delay = 1;

input_speedup     = 1;
output_speedup    = 1;
internal_speedup  = 1.6;

//
// Traffic
//

warmup_periods = 3;

sample_period  = 1000;  

sim_count          = 1;

traffic       = bitrev;


// Flatfly 
//
// #node = k^(n+1)
//
// x, y, specifies the arrangement of routers in x and y dim
// xr, yr specifiies the arayment of clients in a router
//
topology = flatfly;
subnets = 1;

c  = 16;
k  = 16;
n  = 1;

x  = 16;
y  = 1;
xr = 16;
yr = 1;

use_noc_latency = 0;

//
// Routing
//

routing_function = ugal;

//1: batch mode, 0: injection mode
use_read_write = 0;

//for injection mode
packet_size = 1;
injection_rate = 0.1;

//for batch mode
read_request_size=1;
write_request_size=1;
read_reply_size=1;
write_reply_size=1;

read_request_begin_vc  = 0;
read_request_end_vc    = 3;
write_reply_begin_vc   = 4;
write_reply_end_vc     = 7;
read_reply_begin_vc    = 4;
read_reply_end_vc      = 7;
write_request_begin_vc = 0;
write_request_end_vc   = 3;

//latency: drains all packet, throughput:no drain?
sim_type = latency;

watch_out = -;;END Configuration File: ../../booksim2/src/examples/flatflyconfig
OVERRIDE Parameter: routing_function=ugal
OVERRIDE Parameter: traffic=uniform
OVERRIDE Parameter: injection_rate={0.075}
OVERRIDE Parameter: c=16
OVERRIDE Parameter: k=16
OVERRIDE Parameter: x=16
OVERRIDE Parameter: xr=16
OVERRIDE Parameter: sim_type=latency
OVERRIDE Parameter: seed=1
 Flat Bufferfly 
 k = 16 n = 1 c = 16
 each switch - total radix =  31
 # of switches = 16
 # of channels = 240
 # of nodes ( size of network ) = 256
0 | node5 | Enqueuing flit 1 (packet 1) at time 0.
0 | traffic_manager | Finding output VC for flit 1:
0 | traffic_manager |   Selected output VC 0.
0 | node5 | Injecting flit 1 into subnet 0 at time 0 with priority 0.
1 | network_0/network_0_fchan_ingress5 | Beginning channel traversal for flit 1 with delay 1.
1 | network_0/network_0_fchan_ingress5 | Completed channel traversal for flit 1.
2 | network_0/router_0 | Received flit 1 from channel at input 5.
2 | network_0/router_0 | Adding flit 1 to VC 0 at input 5 (state: idle, empty).
2 | network_0/router_0/buf_5/vc_0 | Changing state from idle to routing.
2 | network_0/router_0 | Beginning routing for VC 0 at input 5 (front: 1).
2 | network_0/router_0 | Completed routing for VC 0 at input 5 (front: 1).
2 | network_0/router_0 |  MIN tmp_out_port: 202 | network_0/router_0 |  NONMIN tmp_out_port: 17
2 | network_0/router_0/buf_5/vc_0 | Changing state from routing to vc_alloc.
2 | network_0/router_0 | Beginning VC allocation for VC 0 at input 5 (front: 1).
2 | network_0/router_0 |   Requesting VC 1 at output 20 (in_pri: 0, out_pri: 0).
2 | network_0/router_0/vc_allocator | Input requests = [ 8 -> [ 12@0 13@0 ]  10 -> [ 41@0 ]  26 -> [ 57@0 ]  ], output requests = [ 12 -> [ 8@0 ]  13 -> [ 8@0 ]  41 -> [ 10@0 ]  57 -> [ 26@0 ]  ].
2 | network_0/router_0/vc_allocator | Input grants = [ 8 -> 12  10 -> 41  26 -> 57  ], output grants = [ 12 -> 8  41 -> 10  57 -> 26  ].
2 | network_0/router_0 | Assigning VC 1 at output 20 to VC 0 at input 5.
2 | network_0/router_0 | Completed VC allocation for VC 0 at input 5 (front: 1).
2 | network_0/router_0 |   Acquiring assigned VC 1 at output 20.
2 | network_0/router_0/buf_5/vc_0 | Changing state from vc_alloc to active.
2 | network_0/router_0 | Beginning switch allocation for VC 0 at input 5 (front: 1).
2 | network_0/router_0 |   Requesting output 20.0 (non-spec, pri: 0).
2 | network_0/router_0/sw_allocator | Input requests = [ 4 -> [ 6@0 ]  5 -> [ 20@0 ]  13 -> [ 28@0 ]  ], output requests = [ 6 -> [ 4@0 ]  20 -> [ 5@0 ]  28 -> [ 13@0 ]  ].
2 | network_0/router_0/sw_allocator | Input grants = [ 4 -> 6  5 -> 20  13 -> 28  ], output grants = [ 6 -> 4  20 -> 5  28 -> 13  ].
2 | network_0/router_0 | Assigning output 20.0 to VC 0 at input 5.0.
2 | network_0/router_0 | Completed switch allocation for VC 0 at input 5 (front: 1).
2 | network_0/router_0 |   Scheduling switch connection from input 5.0 to output 20.0.
2 | network_0/router_0 | Beginning crossbar traversal for flit 1 from input 5.0 to output 20.0.
2 | network_0/router_0 | Completed crossbar traversal for flit 1 from input 5.0 to output 20.0.
2 | network_0/router_0 | Buffering flit 1 at output 20.
2 | network_0/router_0 | Sending flit 1 to channel at output 20.
3 | network_0/network_0_fchan_4 | Beginning channel traversal for flit 1 with delay 1.
3 | network_0/network_0_fchan_4 | Completed channel traversal for flit 1.
4 | network_0/router_5 | Received flit 1 from channel at input 16.
4 | network_0/router_5 | Adding flit 1 to VC 1 at input 16 (state: idle, empty).
4 | network_0/router_5/buf_16/vc_1 | Changing state from idle to routing.
4 | network_0/router_5 | Beginning routing for VC 1 at input 16 (front: 1).
4 | network_0/router_5 | Completed routing for VC 1 at input 16 (front: 1).
4 | network_0/router_5/buf_16/vc_1 | Changing state from routing to vc_alloc.
4 | network_0/router_5 | Beginning VC allocation for VC 1 at input 16 (front: 1).
4 | network_0/router_5 |   Requesting VC 0 at output 9 (in_pri: 0, out_pri: 0).
4 | network_0/router_5 |   Requesting VC 1 at output 9 (in_pri: 0, out_pri: 0).
4 | network_0/router_5/vc_allocator | Input requests = [ 1 -> [ 49@0 ]  12 -> [ 61@0 ]  33 -> [ 18@0 19@0 ]  ], output requests = [ 18 -> [ 33@0 ]  19 -> [ 33@0 ]  49 -> [ 1@0 ]  61 -> [ 12@0 ]  ].
4 | network_0/router_5/vc_allocator | Input grants = [ 1 -> 49  12 -> 61  33 -> 18  ], output grants = [ 18 -> 33  49 -> 1  61 -> 12  ].
4 | network_0/router_5 | Assigning VC 0 at output 9 to VC 1 at input 16.
4 | network_0/router_5 | Completed VC allocation for VC 1 at input 16 (front: 1).
4 | network_0/router_5 |   Acquiring assigned VC 0 at output 9.
4 | network_0/router_5/buf_16/vc_1 | Changing state from vc_alloc to active.
4 | network_0/router_5 | Beginning switch allocation for VC 1 at input 16 (front: 1).
4 | network_0/router_5 |   Requesting output 9.0 (non-spec, pri: 0).
4 | network_0/router_5/sw_allocator | Input requests = [ 0 -> [ 24@0 ]  6 -> [ 30@0 ]  16 -> [ 9@0 ]  ], output requests = [ 9 -> [ 16@0 ]  24 -> [ 0@0 ]  30 -> [ 6@0 ]  ].
4 | network_0/router_5/sw_allocator | Input grants = [ 0 -> 24  6 -> 30  16 -> 9  ], output grants = [ 9 -> 16  24 -> 0  30 -> 6  ].
4 | network_0/router_5 | Assigning output 9.0 to VC 1 at input 16.0.
4 | network_0/router_5 | Completed switch allocation for VC 1 at input 16 (front: 1).
4 | network_0/router_5 |   Scheduling switch connection from input 16.0 to output 9.0.
4 | network_0/router_5 | Beginning crossbar traversal for flit 1 from input 16.0 to output 9.0.
4 | network_0/router_5 | Completed crossbar traversal for flit 1 from input 16.0 to output 9.0.
4 | network_0/router_5 | Buffering flit 1 at output 9.
4 | network_0/router_5 | Sending flit 1 to channel at output 9.
5 | network_0/network_0_fchan_egress89 | Beginning channel traversal for flit 1 with delay 1.
5 | network_0/network_0_fchan_egress89 | Completed channel traversal for flit 1.
6 | node89 | Ejecting flit 1 (packet 1) from VC 0.
6 | node89 | Injecting credit for VC 0 into subnet 0.
6 | node89 | Retiring flit 1 (packet 1, src = 5, dest = 89, hops = 2, flat = 6).
6 | node89 | Retiring packet 1 (plat = 6, nlat = 6, frag = 0, src = 5, dest = 89).
Class 0:
Packet latency average = 6.25851
	minimum = 4
	maximum = 11
Network latency average = 6.25851
	minimum = 4
	maximum = 11
Slowest packet = 1366
Flit latency average = 6.25851
	minimum = 4
	maximum = 11
Slowest flit = 1366
Fragmentation average = 0
	minimum = 0
	maximum = 0
Injected packet rate average = 0.0749688
	minimum = 0.051 (at node 208)
	maximum = 0.099 (at node 68)
Accepted packet rate average = 0.0744961
	minimum = 0.051 (at node 23)
	maximum = 0.103 (at node 127)
Injected flit rate average = 0.0749688
	minimum = 0.051 (at node 208)
	maximum = 0.099 (at node 68)
Accepted flit rate average= 0.0744961
	minimum = 0.051 (at node 23)
	maximum = 0.103 (at node 127)
Injected packet length average = 1
Accepted packet length average = 1
Total in-flight flits = 121 (0 measured)
latency change    = 1
throughput change = 1
Class 0:
Packet latency average = 6.25777
	minimum = 4
	maximum = 12
Network latency average = 6.25777
	minimum = 4
	maximum = 12
Slowest packet = 25254
Flit latency average = 6.25777
	minimum = 4
	maximum = 12
Slowest flit = 25254
Fragmentation average = 0
	minimum = 0
	maximum = 0
Injected packet rate average = 0.0753633
	minimum = 0.0605 (at node 117)
	maximum = 0.0905 (at node 68)
Accepted packet rate average = 0.0751348
	minimum = 0.06 (at node 23)
	maximum = 0.0945 (at node 127)
Injected flit rate average = 0.0753633
	minimum = 0.0605 (at node 117)
	maximum = 0.0905 (at node 68)
Accepted flit rate average= 0.0751348
	minimum = 0.06 (at node 23)
	maximum = 0.0945 (at node 127)
Injected packet length average = 1
Accepted packet length average = 1
Total in-flight flits = 117 (0 measured)
latency change    = 0.000118523
throughput change = 0.00850035
Class 0:
Packet latency average = 6.26631
	minimum = 4
	maximum = 11
Network latency average = 6.26631
	minimum = 4
	maximum = 11
Slowest packet = 41625
Flit latency average = 6.26631
	minimum = 4
	maximum = 11
Slowest flit = 41625
Fragmentation average = 0
	minimum = 0
	maximum = 0
Injected packet rate average = 0.07475
	minimum = 0.055 (at node 38)
	maximum = 0.103 (at node 112)
Accepted packet rate average = 0.0747188
	minimum = 0.052 (at node 84)
	maximum = 0.097 (at node 63)
Injected flit rate average = 0.07475
	minimum = 0.055 (at node 38)
	maximum = 0.103 (at node 112)
Accepted flit rate average= 0.0747188
	minimum = 0.052 (at node 84)
	maximum = 0.097 (at node 63)
Injected packet length average = 1
Accepted packet length average = 1
Total in-flight flits = 125 (0 measured)
latency change    = 0.00136367
throughput change = 0.00556775
Warmed up ...Time used is 3000 cycles
Class 0:
Packet latency average = 6.2687
	minimum = 4
	maximum = 11
Network latency average = 6.2687
	minimum = 4
	maximum = 11
Slowest packet = 60267
Flit latency average = 6.26981
	minimum = 4
	maximum = 11
Slowest flit = 60267
Fragmentation average = 0
	minimum = 0
	maximum = 0
Injected packet rate average = 0.075125
	minimum = 0.054 (at node 185)
	maximum = 0.102 (at node 34)
Accepted packet rate average = 0.075082
	minimum = 0.054 (at node 175)
	maximum = 0.098 (at node 208)
Injected flit rate average = 0.075125
	minimum = 0.054 (at node 185)
	maximum = 0.102 (at node 34)
Accepted flit rate average= 0.075082
	minimum = 0.054 (at node 175)
	maximum = 0.098 (at node 208)
Injected packet length average = 1
Accepted packet length average = 1
Total in-flight flits = 136 (136 measured)
latency change    = 0.000380278
throughput change = 0.00483846
Class 0:
Packet latency average = 6.2686
	minimum = 4
	maximum = 11
Network latency average = 6.2686
	minimum = 4
	maximum = 11
Slowest packet = 60267
Flit latency average = 6.26915
	minimum = 4
	maximum = 11
Slowest flit = 60267
Fragmentation average = 0
	minimum = 0
	maximum = 0
Injected packet rate average = 0.0751621
	minimum = 0.0605 (at node 116)
	maximum = 0.0925 (at node 87)
Accepted packet rate average = 0.0751562
	minimum = 0.054 (at node 175)
	maximum = 0.0925 (at node 132)
Injected flit rate average = 0.0751621
	minimum = 0.0605 (at node 116)
	maximum = 0.0925 (at node 87)
Accepted flit rate average= 0.0751562
	minimum = 0.054 (at node 175)
	maximum = 0.0925 (at node 132)
Injected packet length average = 1
Accepted packet length average = 1
Total in-flight flits = 128 (128 measured)
latency change    = 1.57936e-05
throughput change = 0.000987526
Class 0:
Packet latency average = 6.26436
	minimum = 4
	maximum = 11
Network latency average = 6.26436
	minimum = 4
	maximum = 11
Slowest packet = 60267
Flit latency average = 6.26474
	minimum = 4
	maximum = 11
Slowest flit = 60267
Fragmentation average = 0
	minimum = 0
	maximum = 0
Injected packet rate average = 0.0752135
	minimum = 0.0603333 (at node 22)
	maximum = 0.0893333 (at node 87)
Accepted packet rate average = 0.0752266
	minimum = 0.057 (at node 175)
	maximum = 0.0913333 (at node 35)
Injected flit rate average = 0.0752135
	minimum = 0.0603333 (at node 22)
	maximum = 0.0893333 (at node 87)
Accepted flit rate average= 0.0752266
	minimum = 0.057 (at node 175)
	maximum = 0.0913333 (at node 35)
Injected packet length average = 1
Accepted packet length average = 1
Total in-flight flits = 115 (115 measured)
latency change    = 0.000676456
throughput change = 0.000934676
Draining all recorded packets ...
Draining remaining packets ...
Time taken is 6018 cycles
====== Overall Traffic Statistics ======
====== Traffic class 0 ======
Packet latency average = 6.26472 (1 samples)
	minimum = 4 (1 samples)
	maximum = 11 (1 samples)
Network latency average = 6.26472 (1 samples)
	minimum = 4 (1 samples)
	maximum = 11 (1 samples)
Flit latency average = 6.26504 (1 samples)
	minimum = 4 (1 samples)
	maximum = 11 (1 samples)
Fragmentation average = 0 (1 samples)
	minimum = 0 (1 samples)
	maximum = 0 (1 samples)
Injected packet rate average = 0.0752135 (1 samples)
	minimum = 0.0603333 (1 samples)
	maximum = 0.0893333 (1 samples)
Accepted packet rate average = 0.0752266 (1 samples)
	minimum = 0.057 (1 samples)
	maximum = 0.0913333 (1 samples)
Injected flit rate average = 0.0752135 (1 samples)
	minimum = 0.0603333 (1 samples)
	maximum = 0.0893333 (1 samples)
Accepted flit rate average = 0.0752266 (1 samples)
	minimum = 0.057 (1 samples)
	maximum = 0.0913333 (1 samples)
Injected packet size average = 1 (1 samples)
Accepted packet size average = 1 (1 samples)
Hops average = 2.08646 (1 samples)
Total run time 23.468
