BEGIN Configuration File: ../../booksim2/src/examples/flatflyconfig
// $Id$

// Copyright (c) 2007-2015, Trustees of The Leland Stanford Junior University
// All rights reserved.
//
// Redistribution and use in source and binary forms, with or without
// modification, are permitted provided that the following conditions are met:
//
// Redistributions of source code must retain the above copyright notice, this
// list of conditions and the following disclaimer.
// Redistributions in binary form must reproduce the above copyright notice,
// this list of conditions and the following disclaimer in the documentation
// and/or other materials provided with the distribution.
//
// THIS SOFTWARE IS PROVIDED BY THE COPYRIGHT HOLDERS AND CONTRIBUTORS "AS IS"
// AND ANY EXPRESS OR IMPLIED WARRANTIES, INCLUDING, BUT NOT LIMITED TO, THE
// IMPLIED WARRANTIES OF MERCHANTABILITY AND FITNESS FOR A PARTICULAR PURPOSE
// ARE DISCLAIMED. IN NO EVENT SHALL THE COPYRIGHT OWNER OR CONTRIBUTORS BE
// LIABLE FOR ANY DIRECT, INDIRECT, INCIDENTAL, SPECIAL, EXEMPLARY, OR
// CONSEQUENTIAL DAMAGES (INCLUDING, BUT NOT LIMITED TO, PROCUREMENT OF
// SUBSTITUTE GOODS OR SERVICES; LOSS OF USE, DATA, OR PROFITS; OR BUSINESS
// INTERRUPTION) HOWEVER CAUSED AND ON ANY THEORY OF LIABILITY, WHETHER IN
// CONTRACT, STRICT LIABILITY, OR TORT (INCLUDING NEGLIGENCE OR OTHERWISE)
// ARISING IN ANY WAY OUT OF THE USE OF THIS SOFTWARE, EVEN IF ADVISED OF THE
// POSSIBILITY OF SUCH DAMAGE.

//A flattened butterfly configurate file with many tweaks from the
//default settings. 


// Flow control
// Total number of VCs must match the above assignments
num_vcs     = 2;
vc_buf_size = 16;

wait_for_tail_credit = 0;

//
// Router architectureq
//
vc_allocator = islip; 
sw_allocator = islip;
alloc_iters  = 3;

credit_delay   = 0;
routing_delay  = 1;
vc_alloc_delay = 1;
sw_alloc_delay = 1;
st_final_delay = 1;

input_speedup     = 1;
output_speedup    = 1;
internal_speedup  = 1.6;

//
// Traffic
//

warmup_periods = 3;

sample_period  = 1000;  

sim_count          = 1;

traffic       = bitrev;


// Flatfly 
//
// #node = k^(n+1)
//
// x, y, specifies the arrangement of routers in x and y dim
// xr, yr specifiies the arayment of clients in a router
//
topology = flatfly;
subnets = 1;

c  = 16;
k  = 16;
n  = 1;

x  = 16;
y  = 1;
xr = 16;
yr = 1;

use_noc_latency = 0;

//
// Routing
//

routing_function = ugal;

//1: batch mode, 0: injection mode
use_read_write = 0;

//for injection mode
packet_size = 1;
injection_rate = 0.1;

//for batch mode
read_request_size=1;
write_request_size=1;
read_reply_size=1;
write_reply_size=1;

read_request_begin_vc  = 0;
read_request_end_vc    = 3;
write_reply_begin_vc   = 4;
write_reply_end_vc     = 7;
read_reply_begin_vc    = 4;
read_reply_end_vc      = 7;
write_request_begin_vc = 0;
write_request_end_vc   = 3;

//latency: drains all packet, throughput:no drain?
sim_type = latency;

watch_out = -;;END Configuration File: ../../booksim2/src/examples/flatflyconfig
OVERRIDE Parameter: routing_function=ugal
OVERRIDE Parameter: traffic=bitcomp
OVERRIDE Parameter: injection_rate={0.15}
OVERRIDE Parameter: c=16
OVERRIDE Parameter: k=16
OVERRIDE Parameter: x=16
OVERRIDE Parameter: xr=16
OVERRIDE Parameter: sim_type=latency
OVERRIDE Parameter: seed=1
 Flat Bufferfly 
 k = 16 n = 1 c = 16
 each switch - total radix =  31
 # of switches = 16
 # of channels = 240
 # of nodes ( size of network ) = 256
0 | node4 | Enqueuing flit 1 (packet 1) at time 0.
0 | traffic_manager | Finding output VC for flit 1:
0 | traffic_manager |   Selected output VC 0.
0 | node4 | Injecting flit 1 into subnet 0 at time 0 with priority 0.
1 | network_0/network_0_fchan_ingress4 | Beginning channel traversal for flit 1 with delay 1.
1 | network_0/network_0_fchan_ingress4 | Completed channel traversal for flit 1.
2 | network_0/router_0 | Received flit 1 from channel at input 4.
2 | network_0/router_0 | Adding flit 1 to VC 0 at input 4 (state: idle, empty).
2 | network_0/router_0/buf_4/vc_0 | Changing state from idle to routing.
2 | network_0/router_0 | Beginning routing for VC 0 at input 4 (front: 1).
2 | network_0/router_0 | Completed routing for VC 0 at input 4 (front: 1).
2 | network_0/router_0 |  MIN tmp_out_port: 302 | network_0/router_0 |  NONMIN tmp_out_port: 27
2 | network_0/router_0/buf_4/vc_0 | Changing state from routing to vc_alloc.
2 | network_0/router_0 | Beginning VC allocation for VC 0 at input 4 (front: 1).
2 | network_0/router_0 |   Requesting VC 1 at output 30 (in_pri: 0, out_pri: 0).
2 | network_0/router_0/vc_allocator | Input requests = [ 2 -> [ 61@0 ]  8 -> [ 61@0 ]  10 -> [ 61@0 ]  26 -> [ 61@0 ]  ], output requests = [ 61 -> [ 2@0 8@0 10@0 26@0 ]  ].
2 | network_0/router_0/vc_allocator | Input grants = [ 2 -> 61  ], output grants = [ 61 -> 2  ].
2 | network_0/router_0 | VC allocation failed for VC 0 at input 4.
2 | network_0/router_0 | Completed VC allocation for VC 0 at input 4 (front: 1).
2 | network_0/router_0 |   No output VC allocated.
3 | network_0/router_0 | Beginning VC allocation for VC 0 at input 4 (front: 1).
3 | network_0/router_0 |   Requesting VC 1 at output 30 (in_pri: 0, out_pri: 0).
3 | network_0/router_0/vc_allocator | Input requests = [ 8 -> [ 61@0 ]  9 -> [ 44@0 ]  10 -> [ 61@0 ]  12 -> [ 52@0 ]  26 -> [ 61@0 ]  27 -> [ 61@0 ]  ], output requests = [ 44 -> [ 9@0 ]  52 -> [ 12@0 ]  61 -> [ 8@0 10@0 26@0 27@0 ]  ].
3 | network_0/router_0/vc_allocator | Input grants = [ 8 -> 61  9 -> 44  12 -> 52  ], output grants = [ 44 -> 9  52 -> 12  61 -> 8  ].
3 | network_0/router_0 | Assigning VC 1 at output 30 to VC 0 at input 4.
3 | network_0/router_0 | Completed VC allocation for VC 0 at input 4 (front: 1).
3 | network_0/router_0 |   Acquiring assigned VC 1 at output 30.
3 | network_0/router_0/buf_4/vc_0 | Changing state from vc_alloc to active.
3 | network_0/router_0 | Beginning switch allocation for VC 0 at input 4 (front: 1).
3 | network_0/router_0 |   Requesting output 30.0 (non-spec, pri: 0).
3 | network_0/router_0/sw_allocator | Input requests = [ 4 -> [ 22@0 30@0 ]  6 -> [ 26@0 ]  ], output requests = [ 22 -> [ 4@0 ]  26 -> [ 6@0 ]  30 -> [ 4@0 ]  ].
3 | network_0/router_0/sw_allocator | Input grants = [ 4 -> 22  6 -> 26  ], output grants = [ 22 -> 4  26 -> 6  ].
3 | network_0/router_0 | Switch allocation failed for VC 0 at input 4: Granted to VC 1.
3 | network_0/router_0 | Completed switch allocation for VC 0 at input 4 (front: 1).
3 | network_0/router_0 |   No output port allocated.
3 | network_0/router_0 | Beginning switch allocation for VC 0 at input 4 (front: 1).
3 | network_0/router_0 |   Requesting output 30.0 (non-spec, pri: 0).
3 | network_0/router_0/sw_allocator | Input requests = [ 4 -> [ 30@0 ]  ], output requests = [ 30 -> [ 4@0 ]  ].
3 | network_0/router_0/sw_allocator | Input grants = [ 4 -> 30  ], output grants = [ 30 -> 4  ].
3 | network_0/router_0 | Assigning output 30.0 to VC 0 at input 4.0.
3 | network_0/router_0 | Completed switch allocation for VC 0 at input 4 (front: 1).
3 | network_0/router_0 |   Scheduling switch connection from input 4.0 to output 30.0.
3 | network_0/router_0 | Beginning crossbar traversal for flit 1 from input 4.0 to output 30.0.
3 | network_0/router_0 | Completed crossbar traversal for flit 1 from input 4.0 to output 30.0.
3 | network_0/router_0 | Buffering flit 1 at output 30.
3 | network_0/router_0 | Sending flit 1 to channel at output 30.
4 | network_0/network_0_fchan_14 | Beginning channel traversal for flit 1 with delay 1.
4 | network_0/network_0_fchan_14 | Completed channel traversal for flit 1.
5 | network_0/router_15 | Received flit 1 from channel at input 16.
5 | network_0/router_15 | Adding flit 1 to VC 1 at input 16 (state: idle, empty).
5 | network_0/router_15/buf_16/vc_1 | Changing state from idle to routing.
5 | network_0/router_15 | Beginning routing for VC 1 at input 16 (front: 1).
5 | network_0/router_15 | Completed routing for VC 1 at input 16 (front: 1).
5 | network_0/router_15/buf_16/vc_1 | Changing state from routing to vc_alloc.
5 | network_0/router_15 | Beginning VC allocation for VC 1 at input 16 (front: 1).
5 | network_0/router_15 |   Requesting VC 0 at output 11 (in_pri: 0, out_pri: 0).
5 | network_0/router_15 |   Requesting VC 1 at output 11 (in_pri: 0, out_pri: 0).
5 | network_0/router_15/vc_allocator | Input requests = [ 2 -> [ 33@0 ]  19 -> [ 34@0 ]  33 -> [ 22@0 23@0 ]  ], output requests = [ 22 -> [ 33@0 ]  23 -> [ 33@0 ]  33 -> [ 2@0 ]  34 -> [ 19@0 ]  ].
5 | network_0/router_15/vc_allocator | Input grants = [ 2 -> 33  19 -> 34  33 -> 22  ], output grants = [ 22 -> 33  33 -> 2  34 -> 19  ].
5 | network_0/router_15 | Assigning VC 0 at output 11 to VC 1 at input 16.
5 | network_0/router_15 | Completed VC allocation for VC 1 at input 16 (front: 1).
5 | network_0/router_15 |   Acquiring assigned VC 0 at output 11.
5 | network_0/router_15/buf_16/vc_1 | Changing state from vc_alloc to active.
5 | network_0/router_15 | Beginning switch allocation for VC 1 at input 16 (front: 1).
5 | network_0/router_15 |   Requesting output 11.0 (non-spec, pri: 0).
5 | network_0/router_15/sw_allocator | Input requests = [ 1 -> [ 16@0 ]  9 -> [ 17@0 ]  16 -> [ 11@0 ]  ], output requests = [ 11 -> [ 16@0 ]  16 -> [ 1@0 ]  17 -> [ 9@0 ]  ].
5 | network_0/router_15/sw_allocator | Input grants = [ 1 -> 16  9 -> 17  16 -> 11  ], output grants = [ 11 -> 16  16 -> 1  17 -> 9  ].
5 | network_0/router_15 | Assigning output 11.0 to VC 1 at input 16.0.
5 | network_0/router_15 | Completed switch allocation for VC 1 at input 16 (front: 1).
5 | network_0/router_15 |   Scheduling switch connection from input 16.0 to output 11.0.
5 | network_0/router_15 | Beginning crossbar traversal for flit 1 from input 16.0 to output 11.0.
5 | network_0/router_15 | Completed crossbar traversal for flit 1 from input 16.0 to output 11.0.
5 | network_0/router_15 | Buffering flit 1 at output 11.
5 | network_0/router_15 | Sending flit 1 to channel at output 11.
6 | network_0/network_0_fchan_egress251 | Beginning channel traversal for flit 1 with delay 1.
6 | network_0/network_0_fchan_egress251 | Completed channel traversal for flit 1.
7 | node251 | Ejecting flit 1 (packet 1) from VC 0.
7 | node251 | Injecting credit for VC 0 into subnet 0.
7 | node251 | Retiring flit 1 (packet 1, src = 4, dest = 251, hops = 2, flat = 7).
7 | node251 | Retiring packet 1 (plat = 7, nlat = 7, frag = 0, src = 4, dest = 251).
Class 0:
Packet latency average = 7.91022
	minimum = 6
	maximum = 15
Network latency average = 7.91022
	minimum = 6
	maximum = 15
Slowest packet = 458
Flit latency average = 7.91022
	minimum = 6
	maximum = 15
Slowest flit = 458
Fragmentation average = 0
	minimum = 0
	maximum = 0
Injected packet rate average = 0.149473
	minimum = 0.124 (at node 103)
	maximum = 0.179 (at node 157)
Accepted packet rate average = 0.148273
	minimum = 0.123 (at node 14)
	maximum = 0.178 (at node 98)
Injected flit rate average = 0.149473
	minimum = 0.124 (at node 103)
	maximum = 0.179 (at node 157)
Accepted flit rate average= 0.148273
	minimum = 0.123 (at node 14)
	maximum = 0.178 (at node 98)
Injected packet length average = 1
Accepted packet length average = 1
Total in-flight flits = 307 (0 measured)
latency change    = 1
throughput change = 1
Class 0:
Packet latency average = 7.92338
	minimum = 6
	maximum = 17
Network latency average = 7.92338
	minimum = 6
	maximum = 17
Slowest packet = 42910
Flit latency average = 7.92338
	minimum = 6
	maximum = 17
Slowest flit = 42910
Fragmentation average = 0
	minimum = 0
	maximum = 0
Injected packet rate average = 0.150158
	minimum = 0.1295 (at node 167)
	maximum = 0.1755 (at node 225)
Accepted packet rate average = 0.149533
	minimum = 0.1295 (at node 88)
	maximum = 0.1745 (at node 30)
Injected flit rate average = 0.150158
	minimum = 0.1295 (at node 167)
	maximum = 0.1755 (at node 225)
Accepted flit rate average= 0.149533
	minimum = 0.1295 (at node 88)
	maximum = 0.1745 (at node 30)
Injected packet length average = 1
Accepted packet length average = 1
Total in-flight flits = 320 (0 measured)
latency change    = 0.00166151
throughput change = 0.00842465
Class 0:
Packet latency average = 7.91583
	minimum = 6
	maximum = 18
Network latency average = 7.91583
	minimum = 6
	maximum = 18
Slowest packet = 104301
Flit latency average = 7.91583
	minimum = 6
	maximum = 18
Slowest flit = 104301
Fragmentation average = 0
	minimum = 0
	maximum = 0
Injected packet rate average = 0.15016
	minimum = 0.125 (at node 178)
	maximum = 0.183 (at node 223)
Accepted packet rate average = 0.150082
	minimum = 0.127 (at node 14)
	maximum = 0.183 (at node 32)
Injected flit rate average = 0.15016
	minimum = 0.125 (at node 178)
	maximum = 0.183 (at node 223)
Accepted flit rate average= 0.150082
	minimum = 0.127 (at node 14)
	maximum = 0.183 (at node 32)
Injected packet length average = 1
Accepted packet length average = 1
Total in-flight flits = 340 (0 measured)
latency change    = 0.0009543
throughput change = 0.00365685
Warmed up ...Time used is 3000 cycles
Class 0:
Packet latency average = 7.91594
	minimum = 6
	maximum = 18
Network latency average = 7.91594
	minimum = 6
	maximum = 18
Slowest packet = 119923
Flit latency average = 7.91845
	minimum = 6
	maximum = 18
Slowest flit = 119923
Fragmentation average = 0
	minimum = 0
	maximum = 0
Injected packet rate average = 0.150203
	minimum = 0.121 (at node 44)
	maximum = 0.183 (at node 34)
Accepted packet rate average = 0.15027
	minimum = 0.122 (at node 53)
	maximum = 0.184 (at node 221)
Injected flit rate average = 0.150203
	minimum = 0.121 (at node 44)
	maximum = 0.183 (at node 34)
Accepted flit rate average= 0.15027
	minimum = 0.122 (at node 53)
	maximum = 0.184 (at node 221)
Injected packet length average = 1
Accepted packet length average = 1
Total in-flight flits = 323 (323 measured)
latency change    = 1.46493e-05
throughput change = 0.00124776
Class 0:
Packet latency average = 7.91105
	minimum = 6
	maximum = 18
Network latency average = 7.91105
	minimum = 6
	maximum = 18
Slowest packet = 119923
Flit latency average = 7.91232
	minimum = 6
	maximum = 18
Slowest flit = 119923
Fragmentation average = 0
	minimum = 0
	maximum = 0
Injected packet rate average = 0.150021
	minimum = 0.125 (at node 192)
	maximum = 0.17 (at node 34)
Accepted packet rate average = 0.150033
	minimum = 0.125 (at node 63)
	maximum = 0.17 (at node 105)
Injected flit rate average = 0.150021
	minimum = 0.125 (at node 192)
	maximum = 0.17 (at node 34)
Accepted flit rate average= 0.150033
	minimum = 0.125 (at node 63)
	maximum = 0.17 (at node 105)
Injected packet length average = 1
Accepted packet length average = 1
Total in-flight flits = 334 (334 measured)
latency change    = 0.000619146
throughput change = 0.00157517
Class 0:
Packet latency average = 7.91199
	minimum = 6
	maximum = 18
Network latency average = 7.91199
	minimum = 6
	maximum = 18
Slowest packet = 119923
Flit latency average = 7.91284
	minimum = 6
	maximum = 18
Slowest flit = 119923
Fragmentation average = 0
	minimum = 0
	maximum = 0
Injected packet rate average = 0.150092
	minimum = 0.129667 (at node 22)
	maximum = 0.169 (at node 220)
Accepted packet rate average = 0.150156
	minimum = 0.129667 (at node 233)
	maximum = 0.168333 (at node 35)
Injected flit rate average = 0.150092
	minimum = 0.129667 (at node 22)
	maximum = 0.169 (at node 220)
Accepted flit rate average= 0.150156
	minimum = 0.129667 (at node 233)
	maximum = 0.168333 (at node 35)
Injected packet length average = 1
Accepted packet length average = 1
Total in-flight flits = 291 (291 measured)
latency change    = 0.000119848
throughput change = 0.000819459
Draining all recorded packets ...
Draining remaining packets ...
Time taken is 6025 cycles
====== Overall Traffic Statistics ======
====== Traffic class 0 ======
Packet latency average = 7.91201 (1 samples)
	minimum = 6 (1 samples)
	maximum = 18 (1 samples)
Network latency average = 7.91201 (1 samples)
	minimum = 6 (1 samples)
	maximum = 18 (1 samples)
Flit latency average = 7.91282 (1 samples)
	minimum = 6 (1 samples)
	maximum = 18 (1 samples)
Fragmentation average = 0 (1 samples)
	minimum = 0 (1 samples)
	maximum = 0 (1 samples)
Injected packet rate average = 0.150092 (1 samples)
	minimum = 0.129667 (1 samples)
	maximum = 0.169 (1 samples)
Accepted packet rate average = 0.150156 (1 samples)
	minimum = 0.129667 (1 samples)
	maximum = 0.168333 (1 samples)
Injected flit rate average = 0.150092 (1 samples)
	minimum = 0.129667 (1 samples)
	maximum = 0.169 (1 samples)
Accepted flit rate average = 0.150156 (1 samples)
	minimum = 0.129667 (1 samples)
	maximum = 0.168333 (1 samples)
Injected packet size average = 1 (1 samples)
Accepted packet size average = 1 (1 samples)
Hops average = 2.65844 (1 samples)
Total run time 48.4279
