BEGIN Configuration File: ../../booksim2/src/examples/flatflyconfig
// $Id$

// Copyright (c) 2007-2015, Trustees of The Leland Stanford Junior University
// All rights reserved.
//
// Redistribution and use in source and binary forms, with or without
// modification, are permitted provided that the following conditions are met:
//
// Redistributions of source code must retain the above copyright notice, this
// list of conditions and the following disclaimer.
// Redistributions in binary form must reproduce the above copyright notice,
// this list of conditions and the following disclaimer in the documentation
// and/or other materials provided with the distribution.
//
// THIS SOFTWARE IS PROVIDED BY THE COPYRIGHT HOLDERS AND CONTRIBUTORS "AS IS"
// AND ANY EXPRESS OR IMPLIED WARRANTIES, INCLUDING, BUT NOT LIMITED TO, THE
// IMPLIED WARRANTIES OF MERCHANTABILITY AND FITNESS FOR A PARTICULAR PURPOSE
// ARE DISCLAIMED. IN NO EVENT SHALL THE COPYRIGHT OWNER OR CONTRIBUTORS BE
// LIABLE FOR ANY DIRECT, INDIRECT, INCIDENTAL, SPECIAL, EXEMPLARY, OR
// CONSEQUENTIAL DAMAGES (INCLUDING, BUT NOT LIMITED TO, PROCUREMENT OF
// SUBSTITUTE GOODS OR SERVICES; LOSS OF USE, DATA, OR PROFITS; OR BUSINESS
// INTERRUPTION) HOWEVER CAUSED AND ON ANY THEORY OF LIABILITY, WHETHER IN
// CONTRACT, STRICT LIABILITY, OR TORT (INCLUDING NEGLIGENCE OR OTHERWISE)
// ARISING IN ANY WAY OUT OF THE USE OF THIS SOFTWARE, EVEN IF ADVISED OF THE
// POSSIBILITY OF SUCH DAMAGE.

//A flattened butterfly configurate file with many tweaks from the
//default settings. 


// Flow control
// Total number of VCs must match the above assignments
num_vcs     = 2;
vc_buf_size = 16;

wait_for_tail_credit = 0;

//
// Router architectureq
//
vc_allocator = islip; 
sw_allocator = islip;
alloc_iters  = 3;

credit_delay   = 0;
routing_delay  = 1;
vc_alloc_delay = 1;
sw_alloc_delay = 1;
st_final_delay = 1;

input_speedup     = 1;
output_speedup    = 1;
internal_speedup  = 1.6;

//
// Traffic
//

warmup_periods = 3;

sample_period  = 1000;  

sim_count          = 1;

traffic       = bitrev;


// Flatfly 
//
// #node = k^(n+1)
//
// x, y, specifies the arrangement of routers in x and y dim
// xr, yr specifiies the arayment of clients in a router
//
topology = flatfly;
subnets = 1;

c  = 16;
k  = 16;
n  = 1;

x  = 16;
y  = 1;
xr = 16;
yr = 1;

use_noc_latency = 0;

//
// Routing
//

routing_function = ugal;

//1: batch mode, 0: injection mode
use_read_write = 0;

//for injection mode
packet_size = 1;
injection_rate = 0.1;

//for batch mode
read_request_size=1;
write_request_size=1;
read_reply_size=1;
write_reply_size=1;

read_request_begin_vc  = 0;
read_request_end_vc    = 3;
write_reply_begin_vc   = 4;
write_reply_end_vc     = 7;
read_reply_begin_vc    = 4;
read_reply_end_vc      = 7;
write_request_begin_vc = 0;
write_request_end_vc   = 3;

//latency: drains all packet, throughput:no drain?
sim_type = latency;

watch_out = -;;END Configuration File: ../../booksim2/src/examples/flatflyconfig
OVERRIDE Parameter: routing_function=ugal
OVERRIDE Parameter: traffic=bitcomp
OVERRIDE Parameter: injection_rate={0.4}
OVERRIDE Parameter: c=16
OVERRIDE Parameter: k=16
OVERRIDE Parameter: x=16
OVERRIDE Parameter: xr=16
OVERRIDE Parameter: sim_type=latency
OVERRIDE Parameter: seed=1
 Flat Bufferfly 
 k = 16 n = 1 c = 16
 each switch - total radix =  31
 # of switches = 16
 # of channels = 240
 # of nodes ( size of network ) = 256
0 | node1 | Enqueuing flit 1 (packet 1) at time 0.
0 | traffic_manager | Finding output VC for flit 1:
0 | traffic_manager |   Selected output VC 0.
0 | node1 | Injecting flit 1 into subnet 0 at time 0 with priority 0.
1 | network_0/network_0_fchan_ingress1 | Beginning channel traversal for flit 1 with delay 1.
1 | network_0/network_0_fchan_ingress1 | Completed channel traversal for flit 1.
2 | network_0/router_0 | Received flit 1 from channel at input 1.
2 | network_0/router_0 | Adding flit 1 to VC 0 at input 1 (state: idle, empty).
2 | network_0/router_0/buf_1/vc_0 | Changing state from idle to routing.
2 | network_0/router_0 | Beginning routing for VC 0 at input 1 (front: 1).
2 | network_0/router_0 | Completed routing for VC 0 at input 1 (front: 1).
2 | network_0/router_0 |  MIN tmp_out_port: 302 | network_0/router_0 |  NONMIN tmp_out_port: 27
2 | network_0/router_0/buf_1/vc_0 | Changing state from routing to vc_alloc.
2 | network_0/router_0 | Beginning VC allocation for VC 0 at input 1 (front: 1).
2 | network_0/router_0 |   Requesting VC 1 at output 30 (in_pri: 0, out_pri: 0).
2 | network_0/router_0/vc_allocator | Input requests = [ 0 -> [ 61@0 ]  2 -> [ 61@0 ]  4 -> [ 61@0 ]  6 -> [ 61@0 ]  8 -> [ 61@0 ]  10 -> [ 61@0 ]  12 -> [ 61@0 ]  14 -> [ 61@0 ]  16 -> [ 61@0 ]  20 -> [ 61@0 ]  26 -> [ 61@0 ]  ], output requests = [ 61 -> [ 0@0 2@0 4@0 6@0 8@0 10@0 12@0 14@0 16@0 20@0 26@0 ]  ].
2 | network_0/router_0/vc_allocator | Input grants = [ 0 -> 61  ], output grants = [ 61 -> 0  ].
2 | network_0/router_0 | VC allocation failed for VC 0 at input 1.
2 | network_0/router_0 | Completed VC allocation for VC 0 at input 1 (front: 1).
2 | network_0/router_0 |   No output VC allocated.
3 | network_0/router_0 | Beginning VC allocation for VC 0 at input 1 (front: 1).
3 | network_0/router_0 |   Requesting VC 1 at output 30 (in_pri: 0, out_pri: 0).
3 | network_0/router_0/vc_allocator | Input requests = [ 2 -> [ 61@0 ]  4 -> [ 61@0 ]  6 -> [ 61@0 ]  8 -> [ 61@0 ]  9 -> [ 32@0 ]  10 -> [ 61@0 ]  11 -> [ 54@0 ]  12 -> [ 61@0 ]  13 -> [ 32@0 ]  14 -> [ 61@0 ]  16 -> [ 61@0 ]  18 -> [ 32@0 ]  20 -> [ 61@0 ]  21 -> [ 50@0 ]  26 -> [ 61@0 ]  27 -> [ 46@0 ]  28 -> [ 52@0 ]  ], output requests = [ 32 -> [ 9@0 13@0 18@0 ]  46 -> [ 27@0 ]  50 -> [ 21@0 ]  52 -> [ 28@0 ]  54 -> [ 11@0 ]  61 -> [ 2@0 4@0 6@0 8@0 10@0 12@0 14@0 16@0 20@0 26@0 ]  ].
3 | network_0/router_0/vc_allocator | Input grants = [ 2 -> 61  9 -> 32  11 -> 54  21 -> 50  27 -> 46  28 -> 52  ], output grants = [ 32 -> 9  46 -> 27  50 -> 21  52 -> 28  54 -> 11  61 -> 2  ].
3 | network_0/router_0 | Assigning VC 1 at output 30 to VC 0 at input 1.
3 | network_0/router_0 | Completed VC allocation for VC 0 at input 1 (front: 1).
3 | network_0/router_0 |   Acquiring assigned VC 1 at output 30.
3 | network_0/router_0/buf_1/vc_0 | Changing state from vc_alloc to active.
3 | network_0/router_0 | Beginning switch allocation for VC 0 at input 1 (front: 1).
3 | network_0/router_0 |   Requesting output 30.0 (non-spec, pri: 0).
3 | network_0/router_0/sw_allocator | Input requests = [ 1 -> [ 30@0 ]  4 -> [ 16@0 ]  5 -> [ 27@0 ]  10 -> [ 25@0 ]  13 -> [ 23@0 ]  14 -> [ 26@0 ]  ], output requests = [ 16 -> [ 4@0 ]  23 -> [ 13@0 ]  25 -> [ 10@0 ]  26 -> [ 14@0 ]  27 -> [ 5@0 ]  30 -> [ 1@0 ]  ].
3 | network_0/router_0/sw_allocator | Input grants = [ 1 -> 30  4 -> 16  5 -> 27  10 -> 25  13 -> 23  14 -> 26  ], output grants = [ 16 -> 4  23 -> 13  25 -> 10  26 -> 14  27 -> 5  30 -> 1  ].
3 | network_0/router_0 | Assigning output 30.0 to VC 0 at input 1.0.
3 | network_0/router_0 | Completed switch allocation for VC 0 at input 1 (front: 1).
3 | network_0/router_0 |   Scheduling switch connection from input 1.0 to output 30.0.
3 | network_0/router_0 | Beginning crossbar traversal for flit 1 from input 1.0 to output 30.0.
3 | network_0/router_0 | Completed crossbar traversal for flit 1 from input 1.0 to output 30.0.
3 | network_0/router_0 | Buffering flit 1 at output 30.
3 | network_0/router_0 | Sending flit 1 to channel at output 30.
4 | network_0/network_0_fchan_14 | Beginning channel traversal for flit 1 with delay 1.
4 | network_0/network_0_fchan_14 | Completed channel traversal for flit 1.
5 | network_0/router_15 | Received flit 1 from channel at input 16.
5 | network_0/router_15 | Adding flit 1 to VC 1 at input 16 (state: idle, empty).
5 | network_0/router_15/buf_16/vc_1 | Changing state from idle to routing.
5 | network_0/router_15 | Beginning routing for VC 1 at input 16 (front: 1).
5 | network_0/router_15 | Completed routing for VC 1 at input 16 (front: 1).
5 | network_0/router_15/buf_16/vc_1 | Changing state from routing to vc_alloc.
5 | network_0/router_15 | Beginning VC allocation for VC 1 at input 16 (front: 1).
5 | network_0/router_15 |   Requesting VC 0 at output 14 (in_pri: 0, out_pri: 0).
5 | network_0/router_15 |   Requesting VC 1 at output 14 (in_pri: 0, out_pri: 0).
5 | network_0/router_15/vc_allocator | Input requests = [ 6 -> [ 33@0 ]  9 -> [ 50@0 ]  18 -> [ 33@0 ]  20 -> [ 33@0 ]  21 -> [ 42@0 ]  24 -> [ 33@0 ]  26 -> [ 33@0 ]  30 -> [ 33@0 ]  33 -> [ 28@0 29@0 ]  34 -> [ 61@0 ]  42 -> [ 53@0 ]  50 -> [ 45@0 ]  ], output requests = [ 28 -> [ 33@0 ]  29 -> [ 33@0 ]  33 -> [ 6@0 18@0 20@0 24@0 26@0 30@0 ]  42 -> [ 21@0 ]  45 -> [ 50@0 ]  50 -> [ 9@0 ]  53 -> [ 42@0 ]  61 -> [ 34@0 ]  ].
5 | network_0/router_15/vc_allocator | Input grants = [ 9 -> 50  18 -> 33  21 -> 42  33 -> 28  34 -> 61  42 -> 53  50 -> 45  ], output grants = [ 28 -> 33  33 -> 18  42 -> 21  45 -> 50  50 -> 9  53 -> 42  61 -> 34  ].
5 | network_0/router_15 | Assigning VC 0 at output 14 to VC 1 at input 16.
5 | network_0/router_15 | Completed VC allocation for VC 1 at input 16 (front: 1).
5 | network_0/router_15 |   Acquiring assigned VC 0 at output 14.
5 | network_0/router_15/buf_16/vc_1 | Changing state from vc_alloc to active.
5 | network_0/router_15 | Beginning switch allocation for VC 1 at input 16 (front: 1).
5 | network_0/router_15 |   Requesting output 14.0 (non-spec, pri: 0).
5 | network_0/router_15/sw_allocator | Input requests = [ 4 -> [ 25@0 ]  9 -> [ 16@0 ]  10 -> [ 21@0 ]  16 -> [ 14@0 ]  17 -> [ 30@0 ]  21 -> [ 26@0 ]  25 -> [ 22@0 ]  ], output requests = [ 14 -> [ 16@0 ]  16 -> [ 9@0 ]  21 -> [ 10@0 ]  22 -> [ 25@0 ]  25 -> [ 4@0 ]  26 -> [ 21@0 ]  30 -> [ 17@0 ]  ].
5 | network_0/router_15/sw_allocator | Input grants = [ 4 -> 25  9 -> 16  10 -> 21  16 -> 14  17 -> 30  21 -> 26  25 -> 22  ], output grants = [ 14 -> 16  16 -> 9  21 -> 10  22 -> 25  25 -> 4  26 -> 21  30 -> 17  ].
5 | network_0/router_15 | Assigning output 14.0 to VC 1 at input 16.0.
5 | network_0/router_15 | Completed switch allocation for VC 1 at input 16 (front: 1).
5 | network_0/router_15 |   Scheduling switch connection from input 16.0 to output 14.0.
5 | network_0/router_15 | Beginning crossbar traversal for flit 1 from input 16.0 to output 14.0.
5 | network_0/router_15 | Completed crossbar traversal for flit 1 from input 16.0 to output 14.0.
5 | network_0/router_15 | Buffering flit 1 at output 14.
5 | network_0/router_15 | Sending flit 1 to channel at output 14.
6 | network_0/network_0_fchan_egress254 | Beginning channel traversal for flit 1 with delay 1.
6 | network_0/network_0_fchan_egress254 | Completed channel traversal for flit 1.
7 | node254 | Ejecting flit 1 (packet 1) from VC 0.
7 | node254 | Injecting credit for VC 0 into subnet 0.
7 | node254 | Retiring flit 1 (packet 1, src = 1, dest = 254, hops = 2, flat = 7).
7 | node254 | Retiring packet 1 (plat = 7, nlat = 7, frag = 0, src = 1, dest = 254).
Class 0:
Packet latency average = 15.0082
	minimum = 6
	maximum = 128
Network latency average = 15.0078
	minimum = 6
	maximum = 128
Slowest packet = 44860
Flit latency average = 15.0078
	minimum = 6
	maximum = 128
Slowest flit = 44860
Fragmentation average = 0
	minimum = 0
	maximum = 0
Injected packet rate average = 0.400324
	minimum = 0.362 (at node 153)
	maximum = 0.443 (at node 243)
Accepted packet rate average = 0.394531
	minimum = 0.358 (at node 127)
	maximum = 0.436 (at node 3)
Injected flit rate average = 0.400324
	minimum = 0.362 (at node 153)
	maximum = 0.443 (at node 243)
Accepted flit rate average= 0.394531
	minimum = 0.358 (at node 127)
	maximum = 0.436 (at node 3)
Injected packet length average = 1
Accepted packet length average = 1
Total in-flight flits = 1483 (0 measured)
latency change    = 1
throughput change = 1
Class 0:
Packet latency average = 16.4941
	minimum = 6
	maximum = 200
Network latency average = 16.4699
	minimum = 6
	maximum = 200
Slowest packet = 142744
Flit latency average = 16.4699
	minimum = 6
	maximum = 200
Slowest flit = 142744
Fragmentation average = 0
	minimum = 0
	maximum = 0
Injected packet rate average = 0.400781
	minimum = 0.371 (at node 152)
	maximum = 0.4325 (at node 247)
Accepted packet rate average = 0.396221
	minimum = 0.3665 (at node 209)
	maximum = 0.4295 (at node 8)
Injected flit rate average = 0.400781
	minimum = 0.371 (at node 152)
	maximum = 0.4325 (at node 247)
Accepted flit rate average= 0.396221
	minimum = 0.3665 (at node 209)
	maximum = 0.4295 (at node 8)
Injected packet length average = 1
Accepted packet length average = 1
Total in-flight flits = 2336 (0 measured)
latency change    = 0.0900833
throughput change = 0.00426392
Class 0:
Packet latency average = 25.8089
	minimum = 6
	maximum = 319
Network latency average = 24.6838
	minimum = 6
	maximum = 277
Slowest packet = 190658
Flit latency average = 24.6838
	minimum = 6
	maximum = 277
Slowest flit = 219185
Fragmentation average = 0
	minimum = 0
	maximum = 0
Injected packet rate average = 0.397051
	minimum = 0.33 (at node 27)
	maximum = 0.441 (at node 207)
Accepted packet rate average = 0.395418
	minimum = 0.318 (at node 152)
	maximum = 0.455 (at node 46)
Injected flit rate average = 0.397051
	minimum = 0.33 (at node 27)
	maximum = 0.441 (at node 207)
Accepted flit rate average= 0.395418
	minimum = 0.318 (at node 152)
	maximum = 0.455 (at node 46)
Injected packet length average = 1
Accepted packet length average = 1
Total in-flight flits = 2762 (0 measured)
latency change    = 0.360917
throughput change = 0.00203009
Warmed up ...Time used is 3000 cycles
Class 0:
Packet latency average = 40.3348
	minimum = 6
	maximum = 444
Network latency average = 32.1493
	minimum = 6
	maximum = 293
Slowest packet = 306886
Flit latency average = 32.9298
	minimum = 6
	maximum = 293
Slowest flit = 373764
Fragmentation average = 0
	minimum = 0
	maximum = 0
Injected packet rate average = 0.393363
	minimum = 0.316 (at node 109)
	maximum = 0.441 (at node 20)
Accepted packet rate average = 0.389098
	minimum = 0.311 (at node 146)
	maximum = 0.447 (at node 235)
Injected flit rate average = 0.393363
	minimum = 0.316 (at node 109)
	maximum = 0.441 (at node 20)
Accepted flit rate average= 0.389098
	minimum = 0.311 (at node 146)
	maximum = 0.447 (at node 235)
Injected packet length average = 1
Accepted packet length average = 1
Total in-flight flits = 3888 (3888 measured)
latency change    = 0.360132
throughput change = 0.0162435
Class 0:
Packet latency average = 56.4462
	minimum = 6
	maximum = 690
Network latency average = 37.5556
	minimum = 6
	maximum = 324
Slowest packet = 306886
Flit latency average = 37.8727
	minimum = 6
	maximum = 324
Slowest flit = 466943
Fragmentation average = 0
	minimum = 0
	maximum = 0
Injected packet rate average = 0.390309
	minimum = 0.3225 (at node 29)
	maximum = 0.4315 (at node 243)
Accepted packet rate average = 0.386871
	minimum = 0.319 (at node 155)
	maximum = 0.423 (at node 124)
Injected flit rate average = 0.390309
	minimum = 0.3225 (at node 29)
	maximum = 0.4315 (at node 243)
Accepted flit rate average= 0.386871
	minimum = 0.319 (at node 155)
	maximum = 0.423 (at node 124)
Injected packet length average = 1
Accepted packet length average = 1
Total in-flight flits = 4566 (4566 measured)
latency change    = 0.285429
throughput change = 0.00575531
Class 0:
Packet latency average = 76.3891
	minimum = 6
	maximum = 833
Network latency average = 41.7704
	minimum = 6
	maximum = 350
Slowest packet = 306886
Flit latency average = 41.9435
	minimum = 6
	maximum = 350
Slowest flit = 569693
Fragmentation average = 0
	minimum = 0
	maximum = 0
Injected packet rate average = 0.387983
	minimum = 0.318 (at node 100)
	maximum = 0.429333 (at node 243)
Accepted packet rate average = 0.384792
	minimum = 0.31 (at node 155)
	maximum = 0.427333 (at node 12)
Injected flit rate average = 0.387983
	minimum = 0.318 (at node 100)
	maximum = 0.429333 (at node 243)
Accepted flit rate average= 0.384792
	minimum = 0.31 (at node 155)
	maximum = 0.427333 (at node 12)
Injected packet length average = 1
Accepted packet length average = 1
Total in-flight flits = 5274 (5274 measured)
latency change    = 0.26107
throughput change = 0.00540403
Class 0:
Packet latency average = 98.606
	minimum = 6
	maximum = 1002
Network latency average = 45.2501
	minimum = 6
	maximum = 350
Slowest packet = 306886
Flit latency average = 45.3559
	minimum = 6
	maximum = 350
Slowest flit = 569693
Fragmentation average = 0
	minimum = 0
	maximum = 0
Injected packet rate average = 0.38644
	minimum = 0.31475 (at node 29)
	maximum = 0.4185 (at node 243)
Accepted packet rate average = 0.38345
	minimum = 0.31475 (at node 226)
	maximum = 0.41725 (at node 12)
Injected flit rate average = 0.38644
	minimum = 0.31475 (at node 29)
	maximum = 0.4185 (at node 243)
Accepted flit rate average= 0.38345
	minimum = 0.31475 (at node 226)
	maximum = 0.41725 (at node 12)
Injected packet length average = 1
Accepted packet length average = 1
Total in-flight flits = 5896 (5896 measured)
latency change    = 0.22531
throughput change = 0.00349842
Class 0:
Packet latency average = 122.466
	minimum = 6
	maximum = 1319
Network latency average = 48.5295
	minimum = 6
	maximum = 350
Slowest packet = 306886
Flit latency average = 48.596
	minimum = 6
	maximum = 350
Slowest flit = 569693
Fragmentation average = 0
	minimum = 0
	maximum = 0
Injected packet rate average = 0.38456
	minimum = 0.3094 (at node 29)
	maximum = 0.4152 (at node 163)
Accepted packet rate average = 0.381873
	minimum = 0.3094 (at node 226)
	maximum = 0.4154 (at node 92)
Injected flit rate average = 0.38456
	minimum = 0.3094 (at node 29)
	maximum = 0.4152 (at node 163)
Accepted flit rate average= 0.381873
	minimum = 0.3094 (at node 226)
	maximum = 0.4154 (at node 92)
Injected packet length average = 1
Accepted packet length average = 1
Total in-flight flits = 6282 (6282 measured)
latency change    = 0.194832
throughput change = 0.00412901
Class 0:
Packet latency average = 148.158
	minimum = 6
	maximum = 1442
Network latency average = 51.5377
	minimum = 6
	maximum = 350
Slowest packet = 306886
Flit latency average = 51.5791
	minimum = 6
	maximum = 350
Slowest flit = 569693
Fragmentation average = 0
	minimum = 0
	maximum = 0
Injected packet rate average = 0.382768
	minimum = 0.322167 (at node 29)
	maximum = 0.417333 (at node 170)
Accepted packet rate average = 0.380346
	minimum = 0.321167 (at node 226)
	maximum = 0.417833 (at node 85)
Injected flit rate average = 0.382768
	minimum = 0.322167 (at node 29)
	maximum = 0.417333 (at node 170)
Accepted flit rate average= 0.380346
	minimum = 0.321167 (at node 226)
	maximum = 0.417833 (at node 85)
Injected packet length average = 1
Accepted packet length average = 1
Total in-flight flits = 6581 (6581 measured)
latency change    = 0.173407
throughput change = 0.0040167
Class 0:
Packet latency average = 176.382
	minimum = 6
	maximum = 1561
Network latency average = 54.376
	minimum = 6
	maximum = 350
Slowest packet = 306886
Flit latency average = 54.4001
	minimum = 6
	maximum = 350
Slowest flit = 569693
Fragmentation average = 0
	minimum = 0
	maximum = 0
Injected packet rate average = 0.381444
	minimum = 0.323429 (at node 29)
	maximum = 0.415286 (at node 174)
Accepted packet rate average = 0.379011
	minimum = 0.322571 (at node 226)
	maximum = 0.414857 (at node 85)
Injected flit rate average = 0.381444
	minimum = 0.323429 (at node 29)
	maximum = 0.415286 (at node 174)
Accepted flit rate average= 0.379011
	minimum = 0.322571 (at node 226)
	maximum = 0.414857 (at node 85)
Injected packet length average = 1
Accepted packet length average = 1
Total in-flight flits = 7230 (7230 measured)
latency change    = 0.160016
throughput change = 0.00352112
Draining all recorded packets ...
Class 0:
Remaining flits: 1056093 1056195 1056399 1056502 1058982 1059182 1059277 1060112 1061158 1061345 [...] (8007 flits)
Measured flits: 1056093 1056195 1056399 1056502 1058982 1059182 1059277 1061158 1061345 1061446 [...] (735 flits)
Draining remaining packets ...
Time taken is 12004 cycles
====== Overall Traffic Statistics ======
====== Traffic class 0 ======
Packet latency average = 209.013 (1 samples)
	minimum = 6 (1 samples)
	maximum = 2073 (1 samples)
Network latency average = 56.8934 (1 samples)
	minimum = 6 (1 samples)
	maximum = 395 (1 samples)
Flit latency average = 60.5622 (1 samples)
	minimum = 6 (1 samples)
	maximum = 395 (1 samples)
Fragmentation average = 0 (1 samples)
	minimum = 0 (1 samples)
	maximum = 0 (1 samples)
Injected packet rate average = 0.381444 (1 samples)
	minimum = 0.323429 (1 samples)
	maximum = 0.415286 (1 samples)
Accepted packet rate average = 0.379011 (1 samples)
	minimum = 0.322571 (1 samples)
	maximum = 0.414857 (1 samples)
Injected flit rate average = 0.381444 (1 samples)
	minimum = 0.323429 (1 samples)
	maximum = 0.415286 (1 samples)
Accepted flit rate average = 0.379011 (1 samples)
	minimum = 0.322571 (1 samples)
	maximum = 0.414857 (1 samples)
Injected packet size average = 1 (1 samples)
Accepted packet size average = 1 (1 samples)
Hops average = 2.84553 (1 samples)
Total run time 123.681
