BEGIN Configuration File: ../../booksim2/src/examples/flatflyconfig
// $Id$

// Copyright (c) 2007-2015, Trustees of The Leland Stanford Junior University
// All rights reserved.
//
// Redistribution and use in source and binary forms, with or without
// modification, are permitted provided that the following conditions are met:
//
// Redistributions of source code must retain the above copyright notice, this
// list of conditions and the following disclaimer.
// Redistributions in binary form must reproduce the above copyright notice,
// this list of conditions and the following disclaimer in the documentation
// and/or other materials provided with the distribution.
//
// THIS SOFTWARE IS PROVIDED BY THE COPYRIGHT HOLDERS AND CONTRIBUTORS "AS IS"
// AND ANY EXPRESS OR IMPLIED WARRANTIES, INCLUDING, BUT NOT LIMITED TO, THE
// IMPLIED WARRANTIES OF MERCHANTABILITY AND FITNESS FOR A PARTICULAR PURPOSE
// ARE DISCLAIMED. IN NO EVENT SHALL THE COPYRIGHT OWNER OR CONTRIBUTORS BE
// LIABLE FOR ANY DIRECT, INDIRECT, INCIDENTAL, SPECIAL, EXEMPLARY, OR
// CONSEQUENTIAL DAMAGES (INCLUDING, BUT NOT LIMITED TO, PROCUREMENT OF
// SUBSTITUTE GOODS OR SERVICES; LOSS OF USE, DATA, OR PROFITS; OR BUSINESS
// INTERRUPTION) HOWEVER CAUSED AND ON ANY THEORY OF LIABILITY, WHETHER IN
// CONTRACT, STRICT LIABILITY, OR TORT (INCLUDING NEGLIGENCE OR OTHERWISE)
// ARISING IN ANY WAY OUT OF THE USE OF THIS SOFTWARE, EVEN IF ADVISED OF THE
// POSSIBILITY OF SUCH DAMAGE.

//A flattened butterfly configurate file with many tweaks from the
//default settings. 


// Flow control
// Total number of VCs must match the above assignments
num_vcs     = 2;
vc_buf_size = 16;

wait_for_tail_credit = 0;

//
// Router architectureq
//
vc_allocator = islip; 
sw_allocator = islip;
alloc_iters  = 3;

credit_delay   = 0;
routing_delay  = 1;
vc_alloc_delay = 1;
sw_alloc_delay = 1;
st_final_delay = 1;

input_speedup     = 1;
output_speedup    = 1;
internal_speedup  = 1.6;

//
// Traffic
//

warmup_periods = 3;

sample_period  = 1000;  

sim_count          = 1;

traffic       = bitrev;


// Flatfly 
//
// #node = k^(n+1)
//
// x, y, specifies the arrangement of routers in x and y dim
// xr, yr specifiies the arayment of clients in a router
//
topology = flatfly;
subnets = 1;

c  = 16;
k  = 16;
n  = 1;

x  = 16;
y  = 1;
xr = 16;
yr = 1;

use_noc_latency = 0;

//
// Routing
//

routing_function = ugal;

//1: batch mode, 0: injection mode
use_read_write = 0;

//for injection mode
packet_size = 1;
injection_rate = 0.1;

//for batch mode
read_request_size=1;
write_request_size=1;
read_reply_size=1;
write_reply_size=1;

read_request_begin_vc  = 0;
read_request_end_vc    = 3;
write_reply_begin_vc   = 4;
write_reply_end_vc     = 7;
read_reply_begin_vc    = 4;
read_reply_end_vc      = 7;
write_request_begin_vc = 0;
write_request_end_vc   = 3;

//latency: drains all packet, throughput:no drain?
sim_type = latency;

watch_out = -;;END Configuration File: ../../booksim2/src/examples/flatflyconfig
OVERRIDE Parameter: routing_function=ugal
OVERRIDE Parameter: traffic=uniform
OVERRIDE Parameter: injection_rate={0.9}
OVERRIDE Parameter: c=16
OVERRIDE Parameter: k=16
OVERRIDE Parameter: x=16
OVERRIDE Parameter: xr=16
OVERRIDE Parameter: sim_type=latency
OVERRIDE Parameter: seed=1
 Flat Bufferfly 
 k = 16 n = 1 c = 16
 each switch - total radix =  31
 # of switches = 16
 # of channels = 240
 # of nodes ( size of network ) = 256
0 | node1 | Enqueuing flit 1 (packet 1) at time 0.
0 | traffic_manager | Finding output VC for flit 1:
0 | traffic_manager |   Selected output VC 0.
0 | node1 | Injecting flit 1 into subnet 0 at time 0 with priority 0.
1 | network_0/network_0_fchan_ingress1 | Beginning channel traversal for flit 1 with delay 1.
1 | network_0/network_0_fchan_ingress1 | Completed channel traversal for flit 1.
2 | network_0/router_0 | Received flit 1 from channel at input 1.
2 | network_0/router_0 | Adding flit 1 to VC 0 at input 1 (state: idle, empty).
2 | network_0/router_0/buf_1/vc_0 | Changing state from idle to routing.
2 | network_0/router_0 | Beginning routing for VC 0 at input 1 (front: 1).
2 | network_0/router_0 | Completed routing for VC 0 at input 1 (front: 1).
2 | network_0/router_0 |  MIN tmp_out_port: 202 | network_0/router_0 |  NONMIN tmp_out_port: 17
2 | network_0/router_0/buf_1/vc_0 | Changing state from routing to vc_alloc.
2 | network_0/router_0 | Beginning VC allocation for VC 0 at input 1 (front: 1).
2 | network_0/router_0 |   Requesting VC 1 at output 20 (in_pri: 0, out_pri: 0).
2 | network_0/router_0/vc_allocator | Input requests = [ 0 -> [ 12@0 13@0 ]  2 -> [ 41@0 ]  4 -> [ 57@0 ]  6 -> [ 33@0 ]  8 -> [ 37@0 ]  10 -> [ 43@0 ]  12 -> [ 49@0 ]  14 -> [ 55@0 ]  16 -> [ 53@0 ]  18 -> [ 57@0 ]  20 -> [ 37@0 ]  22 -> [ 33@0 ]  24 -> [ 53@0 ]  26 -> [ 43@0 ]  28 -> [ 53@0 ]  30 -> [ 14@0 15@0 ]  ], output requests = [ 12 -> [ 0@0 ]  13 -> [ 0@0 ]  14 -> [ 30@0 ]  15 -> [ 30@0 ]  33 -> [ 6@0 22@0 ]  37 -> [ 8@0 20@0 ]  41 -> [ 2@0 ]  43 -> [ 10@0 26@0 ]  49 -> [ 12@0 ]  53 -> [ 16@0 24@0 28@0 ]  55 -> [ 14@0 ]  57 -> [ 4@0 18@0 ]  ].
2 | network_0/router_0/vc_allocator | Input grants = [ 0 -> 12  2 -> 41  4 -> 57  6 -> 33  8 -> 37  10 -> 43  12 -> 49  14 -> 55  16 -> 53  30 -> 14  ], output grants = [ 12 -> 0  14 -> 30  33 -> 6  37 -> 8  41 -> 2  43 -> 10  49 -> 12  53 -> 16  55 -> 14  57 -> 4  ].
2 | network_0/router_0 | Assigning VC 1 at output 20 to VC 0 at input 1.
2 | network_0/router_0 | Completed VC allocation for VC 0 at input 1 (front: 1).
2 | network_0/router_0 |   Acquiring assigned VC 1 at output 20.
2 | network_0/router_0/buf_1/vc_0 | Changing state from vc_alloc to active.
2 | network_0/router_0 | Beginning switch allocation for VC 0 at input 1 (front: 1).
2 | network_0/router_0 |   Requesting output 20.0 (non-spec, pri: 0).
2 | network_0/router_0/sw_allocator | Input requests = [ 0 -> [ 6@0 ]  1 -> [ 20@0 ]  2 -> [ 28@0 ]  3 -> [ 16@0 ]  4 -> [ 18@0 ]  5 -> [ 21@0 ]  6 -> [ 24@0 ]  7 -> [ 27@0 ]  8 -> [ 26@0 ]  15 -> [ 7@0 ]  ], output requests = [ 6 -> [ 0@0 ]  7 -> [ 15@0 ]  16 -> [ 3@0 ]  18 -> [ 4@0 ]  20 -> [ 1@0 ]  21 -> [ 5@0 ]  24 -> [ 6@0 ]  26 -> [ 8@0 ]  27 -> [ 7@0 ]  28 -> [ 2@0 ]  ].
2 | network_0/router_0/sw_allocator | Input grants = [ 0 -> 6  1 -> 20  2 -> 28  3 -> 16  4 -> 18  5 -> 21  6 -> 24  7 -> 27  8 -> 26  15 -> 7  ], output grants = [ 6 -> 0  7 -> 15  16 -> 3  18 -> 4  20 -> 1  21 -> 5  24 -> 6  26 -> 8  27 -> 7  28 -> 2  ].
2 | network_0/router_0 | Assigning output 20.0 to VC 0 at input 1.0.
2 | network_0/router_0 | Completed switch allocation for VC 0 at input 1 (front: 1).
2 | network_0/router_0 |   Scheduling switch connection from input 1.0 to output 20.0.
2 | network_0/router_0 | Beginning crossbar traversal for flit 1 from input 1.0 to output 20.0.
2 | network_0/router_0 | Completed crossbar traversal for flit 1 from input 1.0 to output 20.0.
2 | network_0/router_0 | Buffering flit 1 at output 20.
2 | network_0/router_0 | Sending flit 1 to channel at output 20.
3 | network_0/network_0_fchan_4 | Beginning channel traversal for flit 1 with delay 1.
3 | network_0/network_0_fchan_4 | Completed channel traversal for flit 1.
4 | network_0/router_5 | Received flit 1 from channel at input 16.
4 | network_0/router_5 | Adding flit 1 to VC 1 at input 16 (state: idle, empty).
4 | network_0/router_5/buf_16/vc_1 | Changing state from idle to routing.
4 | network_0/router_5 | Beginning routing for VC 1 at input 16 (front: 1).
4 | network_0/router_5 | Completed routing for VC 1 at input 16 (front: 1).
4 | network_0/router_5/buf_16/vc_1 | Changing state from routing to vc_alloc.
4 | network_0/router_5 | Beginning VC allocation for VC 1 at input 16 (front: 1).
4 | network_0/router_5 |   Requesting VC 0 at output 9 (in_pri: 0, out_pri: 0).
4 | network_0/router_5 |   Requesting VC 1 at output 9 (in_pri: 0, out_pri: 0).
4 | network_0/router_5/vc_allocator | Input requests = [ 0 -> [ 39@0 ]  2 -> [ 61@0 ]  4 -> [ 45@0 ]  6 -> [ 37@0 ]  8 -> [ 59@0 ]  10 -> [ 41@0 ]  12 -> [ 28@0 29@0 ]  14 -> [ 61@0 ]  17 -> [ 54@0 ]  18 -> [ 37@0 ]  20 -> [ 33@0 ]  21 -> [ 61@0 ]  22 -> [ 53@0 ]  24 -> [ 54@0 ]  26 -> [ 61@0 ]  27 -> [ 47@0 ]  28 -> [ 49@0 ]  30 -> [ 54@0 ]  33 -> [ 18@0 19@0 ]  39 -> [ 4@0 5@0 ]  43 -> [ 0@0 1@0 ]  45 -> [ 28@0 29@0 ]  47 -> [ 18@0 19@0 ]  53 -> [ 12@0 13@0 ]  55 -> [ 18@0 19@0 ]  57 -> [ 2@0 3@0 ]  ], output requests = [ 0 -> [ 43@0 ]  1 -> [ 43@0 ]  2 -> [ 57@0 ]  3 -> [ 57@0 ]  4 -> [ 39@0 ]  5 -> [ 39@0 ]  12 -> [ 53@0 ]  13 -> [ 53@0 ]  18 -> [ 33@0 47@0 55@0 ]  19 -> [ 33@0 47@0 55@0 ]  28 -> [ 12@0 45@0 ]  29 -> [ 12@0 45@0 ]  33 -> [ 20@0 ]  37 -> [ 6@0 18@0 ]  39 -> [ 0@0 ]  41 -> [ 10@0 ]  45 -> [ 4@0 ]  47 -> [ 27@0 ]  49 -> [ 28@0 ]  53 -> [ 22@0 ]  54 -> [ 17@0 24@0 30@0 ]  59 -> [ 8@0 ]  61 -> [ 2@0 14@0 21@0 26@0 ]  ].
4 | network_0/router_5/vc_allocator | Input grants = [ 0 -> 39  2 -> 61  4 -> 45  6 -> 37  8 -> 59  10 -> 41  12 -> 28  17 -> 54  20 -> 33  22 -> 53  27 -> 47  28 -> 49  33 -> 18  39 -> 4  43 -> 0  53 -> 12  57 -> 2  ], output grants = [ 0 -> 43  2 -> 57  4 -> 39  12 -> 53  18 -> 33  28 -> 12  33 -> 20  37 -> 6  39 -> 0  41 -> 10  45 -> 4  47 -> 27  49 -> 28  53 -> 22  54 -> 17  59 -> 8  61 -> 2  ].
4 | network_0/router_5 | Assigning VC 0 at output 9 to VC 1 at input 16.
4 | network_0/router_5 | Completed VC allocation for VC 1 at input 16 (front: 1).
4 | network_0/router_5 |   Acquiring assigned VC 0 at output 9.
4 | network_0/router_5/buf_16/vc_1 | Changing state from vc_alloc to active.
4 | network_0/router_5 | Beginning switch allocation for VC 1 at input 16 (front: 1).
4 | network_0/router_5 |   Requesting output 9.0 (non-spec, pri: 0).
4 | network_0/router_5/sw_allocator | Input requests = [ 0 -> [ 19@0 ]  1 -> [ 30@0 ]  2 -> [ 22@0 ]  3 -> [ 18@0 ]  4 -> [ 29@0 ]  5 -> [ 20@0 ]  6 -> [ 14@0 ]  8 -> [ 27@0 ]  10 -> [ 16@0 ]  11 -> [ 26@0 ]  13 -> [ 23@0 ]  14 -> [ 24@0 ]  16 -> [ 9@0 ]  19 -> [ 2@0 ]  21 -> [ 0@0 ]  26 -> [ 6@0 ]  28 -> [ 1@0 ]  ], output requests = [ 0 -> [ 21@0 ]  1 -> [ 28@0 ]  2 -> [ 19@0 ]  6 -> [ 26@0 ]  9 -> [ 16@0 ]  14 -> [ 6@0 ]  16 -> [ 10@0 ]  18 -> [ 3@0 ]  19 -> [ 0@0 ]  20 -> [ 5@0 ]  22 -> [ 2@0 ]  23 -> [ 13@0 ]  24 -> [ 14@0 ]  26 -> [ 11@0 ]  27 -> [ 8@0 ]  29 -> [ 4@0 ]  30 -> [ 1@0 ]  ].
4 | network_0/router_5/sw_allocator | Input grants = [ 0 -> 19  1 -> 30  2 -> 22  3 -> 18  4 -> 29  5 -> 20  6 -> 14  8 -> 27  10 -> 16  11 -> 26  13 -> 23  14 -> 24  16 -> 9  19 -> 2  21 -> 0  26 -> 6  28 -> 1  ], output grants = [ 0 -> 21  1 -> 28  2 -> 19  6 -> 26  9 -> 16  14 -> 6  16 -> 10  18 -> 3  19 -> 0  20 -> 5  22 -> 2  23 -> 13  24 -> 14  26 -> 11  27 -> 8  29 -> 4  30 -> 1  ].
4 | network_0/router_5 | Assigning output 9.0 to VC 1 at input 16.0.
4 | network_0/router_5 | Completed switch allocation for VC 1 at input 16 (front: 1).
4 | network_0/router_5 |   Scheduling switch connection from input 16.0 to output 9.0.
4 | network_0/router_5 | Beginning crossbar traversal for flit 1 from input 16.0 to output 9.0.
4 | network_0/router_5 | Completed crossbar traversal for flit 1 from input 16.0 to output 9.0.
4 | network_0/router_5 | Buffering flit 1 at output 9.
4 | network_0/router_5 | Sending flit 1 to channel at output 9.
5 | network_0/network_0_fchan_egress89 | Beginning channel traversal for flit 1 with delay 1.
5 | network_0/network_0_fchan_egress89 | Completed channel traversal for flit 1.
6 | node89 | Ejecting flit 1 (packet 1) from VC 0.
6 | node89 | Injecting credit for VC 0 into subnet 0.
6 | node89 | Retiring flit 1 (packet 1, src = 1, dest = 89, hops = 2, flat = 6).
6 | node89 | Retiring packet 1 (plat = 6, nlat = 6, frag = 0, src = 1, dest = 89).
Class 0:
Packet latency average = 26.8139
	minimum = 4
	maximum = 134
Network latency average = 26.0759
	minimum = 4
	maximum = 130
Slowest packet = 167745
Flit latency average = 26.0759
	minimum = 4
	maximum = 130
Slowest flit = 167745
Fragmentation average = 0
	minimum = 0
	maximum = 0
Injected packet rate average = 0.896613
	minimum = 0.858 (at node 44)
	maximum = 0.927 (at node 207)
Accepted packet rate average = 0.865434
	minimum = 0.78 (at node 11)
	maximum = 0.953 (at node 6)
Injected flit rate average = 0.896613
	minimum = 0.858 (at node 44)
	maximum = 0.927 (at node 207)
Accepted flit rate average= 0.865434
	minimum = 0.78 (at node 11)
	maximum = 0.953 (at node 6)
Injected packet length average = 1
Accepted packet length average = 1
Total in-flight flits = 7994 (0 measured)
latency change    = 1
throughput change = 1
Class 0:
Packet latency average = 37.6037
	minimum = 4
	maximum = 201
Network latency average = 31.9387
	minimum = 4
	maximum = 133
Slowest packet = 167745
Flit latency average = 31.9387
	minimum = 4
	maximum = 133
Slowest flit = 380352
Fragmentation average = 0
	minimum = 0
	maximum = 0
Injected packet rate average = 0.892287
	minimum = 0.853 (at node 153)
	maximum = 0.9165 (at node 223)
Accepted packet rate average = 0.874771
	minimum = 0.819 (at node 206)
	maximum = 0.9325 (at node 70)
Injected flit rate average = 0.892287
	minimum = 0.853 (at node 153)
	maximum = 0.9165 (at node 223)
Accepted flit rate average= 0.874771
	minimum = 0.819 (at node 206)
	maximum = 0.9325 (at node 70)
Injected packet length average = 1
Accepted packet length average = 1
Total in-flight flits = 8984 (0 measured)
latency change    = 0.286936
throughput change = 0.0106747
Class 0:
Packet latency average = 66.9472
	minimum = 4
	maximum = 228
Network latency average = 41.5963
	minimum = 4
	maximum = 129
Slowest packet = 444174
Flit latency average = 41.5963
	minimum = 4
	maximum = 129
Slowest flit = 499548
Fragmentation average = 0
	minimum = 0
	maximum = 0
Injected packet rate average = 0.883586
	minimum = 0.798 (at node 71)
	maximum = 0.959 (at node 121)
Accepted packet rate average = 0.881445
	minimum = 0.804 (at node 23)
	maximum = 0.972 (at node 102)
Injected flit rate average = 0.883586
	minimum = 0.798 (at node 71)
	maximum = 0.959 (at node 121)
Accepted flit rate average= 0.881445
	minimum = 0.804 (at node 23)
	maximum = 0.972 (at node 102)
Injected packet length average = 1
Accepted packet length average = 1
Total in-flight flits = 9537 (0 measured)
latency change    = 0.438307
throughput change = 0.00757146
Warmed up ...Time used is 3000 cycles
Class 0:
Packet latency average = 88.0027
	minimum = 4
	maximum = 273
Network latency average = 42.4468
	minimum = 4
	maximum = 137
Slowest packet = 683275
Flit latency average = 42.6078
	minimum = 4
	maximum = 137
Slowest flit = 748908
Fragmentation average = 0
	minimum = 0
	maximum = 0
Injected packet rate average = 0.882969
	minimum = 0.813 (at node 11)
	maximum = 0.953 (at node 189)
Accepted packet rate average = 0.881793
	minimum = 0.812 (at node 204)
	maximum = 0.977 (at node 178)
Injected flit rate average = 0.882969
	minimum = 0.813 (at node 11)
	maximum = 0.953 (at node 189)
Accepted flit rate average= 0.881793
	minimum = 0.812 (at node 204)
	maximum = 0.977 (at node 178)
Injected packet length average = 1
Accepted packet length average = 1
Total in-flight flits = 9841 (9841 measured)
latency change    = 0.23926
throughput change = 0.000394261
Class 0:
Packet latency average = 97.9282
	minimum = 4
	maximum = 333
Network latency average = 42.8745
	minimum = 4
	maximum = 137
Slowest packet = 683275
Flit latency average = 42.9459
	minimum = 4
	maximum = 137
Slowest flit = 748908
Fragmentation average = 0
	minimum = 0
	maximum = 0
Injected packet rate average = 0.882732
	minimum = 0.8285 (at node 11)
	maximum = 0.937 (at node 162)
Accepted packet rate average = 0.882281
	minimum = 0.8175 (at node 59)
	maximum = 0.9275 (at node 19)
Injected flit rate average = 0.882732
	minimum = 0.8285 (at node 11)
	maximum = 0.937 (at node 162)
Accepted flit rate average= 0.882281
	minimum = 0.8175 (at node 59)
	maximum = 0.9275 (at node 19)
Injected packet length average = 1
Accepted packet length average = 1
Total in-flight flits = 9769 (9769 measured)
latency change    = 0.101356
throughput change = 0.00055343
Class 0:
Packet latency average = 107.485
	minimum = 4
	maximum = 339
Network latency average = 43.2392
	minimum = 4
	maximum = 145
Slowest packet = 683275
Flit latency average = 43.2817
	minimum = 4
	maximum = 145
Slowest flit = 1283749
Fragmentation average = 0
	minimum = 0
	maximum = 0
Injected packet rate average = 0.882707
	minimum = 0.840667 (at node 175)
	maximum = 0.923 (at node 24)
Accepted packet rate average = 0.881854
	minimum = 0.835 (at node 59)
	maximum = 0.923333 (at node 19)
Injected flit rate average = 0.882707
	minimum = 0.840667 (at node 175)
	maximum = 0.923 (at node 24)
Accepted flit rate average= 0.881854
	minimum = 0.835 (at node 59)
	maximum = 0.923333 (at node 19)
Injected packet length average = 1
Accepted packet length average = 1
Total in-flight flits = 10204 (10204 measured)
latency change    = 0.0889136
throughput change = 0.000484302
Class 0:
Packet latency average = 117.544
	minimum = 4
	maximum = 411
Network latency average = 43.4776
	minimum = 4
	maximum = 150
Slowest packet = 683275
Flit latency average = 43.5069
	minimum = 4
	maximum = 150
Slowest flit = 1501977
Fragmentation average = 0
	minimum = 0
	maximum = 0
Injected packet rate average = 0.882218
	minimum = 0.83125 (at node 175)
	maximum = 0.917 (at node 168)
Accepted packet rate average = 0.881888
	minimum = 0.83925 (at node 100)
	maximum = 0.9185 (at node 124)
Injected flit rate average = 0.882218
	minimum = 0.83125 (at node 175)
	maximum = 0.917 (at node 168)
Accepted flit rate average= 0.881888
	minimum = 0.83925 (at node 100)
	maximum = 0.9185 (at node 124)
Injected packet length average = 1
Accepted packet length average = 1
Total in-flight flits = 9888 (9888 measured)
latency change    = 0.0855715
throughput change = 3.80192e-05
Class 0:
Packet latency average = 127.302
	minimum = 4
	maximum = 449
Network latency average = 43.5487
	minimum = 4
	maximum = 152
Slowest packet = 683275
Flit latency average = 43.5715
	minimum = 4
	maximum = 152
Slowest flit = 1699532
Fragmentation average = 0
	minimum = 0
	maximum = 0
Injected packet rate average = 0.882174
	minimum = 0.8416 (at node 43)
	maximum = 0.914 (at node 24)
Accepted packet rate average = 0.881967
	minimum = 0.8398 (at node 224)
	maximum = 0.9188 (at node 21)
Injected flit rate average = 0.882174
	minimum = 0.8416 (at node 43)
	maximum = 0.914 (at node 24)
Accepted flit rate average= 0.881967
	minimum = 0.8398 (at node 224)
	maximum = 0.9188 (at node 21)
Injected packet length average = 1
Accepted packet length average = 1
Total in-flight flits = 9814 (9814 measured)
latency change    = 0.0766581
throughput change = 9.01305e-05
Class 0:
Packet latency average = 136.927
	minimum = 4
	maximum = 499
Network latency average = 43.587
	minimum = 4
	maximum = 152
Slowest packet = 683275
Flit latency average = 43.6058
	minimum = 4
	maximum = 152
Slowest flit = 1699532
Fragmentation average = 0
	minimum = 0
	maximum = 0
Injected packet rate average = 0.882367
	minimum = 0.845333 (at node 175)
	maximum = 0.912 (at node 24)
Accepted packet rate average = 0.88211
	minimum = 0.8435 (at node 224)
	maximum = 0.914333 (at node 243)
Injected flit rate average = 0.882367
	minimum = 0.845333 (at node 175)
	maximum = 0.912 (at node 24)
Accepted flit rate average= 0.88211
	minimum = 0.8435 (at node 224)
	maximum = 0.914333 (at node 243)
Injected packet length average = 1
Accepted packet length average = 1
Total in-flight flits = 9951 (9951 measured)
latency change    = 0.0702916
throughput change = 0.000161928
Class 0:
Packet latency average = 146.459
	minimum = 4
	maximum = 539
Network latency average = 43.6549
	minimum = 4
	maximum = 152
Slowest packet = 683275
Flit latency average = 43.6706
	minimum = 4
	maximum = 152
Slowest flit = 1699532
Fragmentation average = 0
	minimum = 0
	maximum = 0
Injected packet rate average = 0.882771
	minimum = 0.846 (at node 175)
	maximum = 0.908143 (at node 171)
Accepted packet rate average = 0.882503
	minimum = 0.843429 (at node 224)
	maximum = 0.915286 (at node 243)
Injected flit rate average = 0.882771
	minimum = 0.846 (at node 175)
	maximum = 0.908143 (at node 171)
Accepted flit rate average= 0.882503
	minimum = 0.843429 (at node 224)
	maximum = 0.915286 (at node 243)
Injected packet length average = 1
Accepted packet length average = 1
Total in-flight flits = 10038 (10038 measured)
latency change    = 0.0650808
throughput change = 0.000445057
Draining all recorded packets ...
Draining remaining packets ...
Time taken is 10640 cycles
====== Overall Traffic Statistics ======
====== Traffic class 0 ======
Packet latency average = 149.725 (1 samples)
	minimum = 4 (1 samples)
	maximum = 584 (1 samples)
Network latency average = 43.7055 (1 samples)
	minimum = 4 (1 samples)
	maximum = 152 (1 samples)
Flit latency average = 43.7431 (1 samples)
	minimum = 4 (1 samples)
	maximum = 152 (1 samples)
Fragmentation average = 0 (1 samples)
	minimum = 0 (1 samples)
	maximum = 0 (1 samples)
Injected packet rate average = 0.882771 (1 samples)
	minimum = 0.846 (1 samples)
	maximum = 0.908143 (1 samples)
Accepted packet rate average = 0.882503 (1 samples)
	minimum = 0.843429 (1 samples)
	maximum = 0.915286 (1 samples)
Injected flit rate average = 0.882771 (1 samples)
	minimum = 0.846 (1 samples)
	maximum = 0.908143 (1 samples)
Accepted flit rate average = 0.882503 (1 samples)
	minimum = 0.843429 (1 samples)
	maximum = 0.915286 (1 samples)
Injected packet size average = 1 (1 samples)
Accepted packet size average = 1 (1 samples)
Hops average = 1.9935 (1 samples)
Total run time 132.754
