BEGIN Configuration File: ../../booksim2/src/examples/flatflyconfig
// $Id$

// Copyright (c) 2007-2015, Trustees of The Leland Stanford Junior University
// All rights reserved.
//
// Redistribution and use in source and binary forms, with or without
// modification, are permitted provided that the following conditions are met:
//
// Redistributions of source code must retain the above copyright notice, this
// list of conditions and the following disclaimer.
// Redistributions in binary form must reproduce the above copyright notice,
// this list of conditions and the following disclaimer in the documentation
// and/or other materials provided with the distribution.
//
// THIS SOFTWARE IS PROVIDED BY THE COPYRIGHT HOLDERS AND CONTRIBUTORS "AS IS"
// AND ANY EXPRESS OR IMPLIED WARRANTIES, INCLUDING, BUT NOT LIMITED TO, THE
// IMPLIED WARRANTIES OF MERCHANTABILITY AND FITNESS FOR A PARTICULAR PURPOSE
// ARE DISCLAIMED. IN NO EVENT SHALL THE COPYRIGHT OWNER OR CONTRIBUTORS BE
// LIABLE FOR ANY DIRECT, INDIRECT, INCIDENTAL, SPECIAL, EXEMPLARY, OR
// CONSEQUENTIAL DAMAGES (INCLUDING, BUT NOT LIMITED TO, PROCUREMENT OF
// SUBSTITUTE GOODS OR SERVICES; LOSS OF USE, DATA, OR PROFITS; OR BUSINESS
// INTERRUPTION) HOWEVER CAUSED AND ON ANY THEORY OF LIABILITY, WHETHER IN
// CONTRACT, STRICT LIABILITY, OR TORT (INCLUDING NEGLIGENCE OR OTHERWISE)
// ARISING IN ANY WAY OUT OF THE USE OF THIS SOFTWARE, EVEN IF ADVISED OF THE
// POSSIBILITY OF SUCH DAMAGE.

//A flattened butterfly configurate file with many tweaks from the
//default settings. 


// Flow control
// Total number of VCs must match the above assignments
num_vcs     = 2;
vc_buf_size = 16;

wait_for_tail_credit = 0;

//
// Router architectureq
//
vc_allocator = islip; 
sw_allocator = islip;
alloc_iters  = 3;

credit_delay   = 0;
routing_delay  = 1;
vc_alloc_delay = 1;
sw_alloc_delay = 1;
st_final_delay = 1;

input_speedup     = 1;
output_speedup    = 1;
internal_speedup  = 1.6;

//
// Traffic
//

warmup_periods = 3;

sample_period  = 1000;  

sim_count          = 1;

traffic       = bitrev;


// Flatfly 
//
// #node = k^(n+1)
//
// x, y, specifies the arrangement of routers in x and y dim
// xr, yr specifiies the arayment of clients in a router
//
topology = flatfly;
subnets = 1;

c  = 16;
k  = 16;
n  = 1;

x  = 16;
y  = 1;
xr = 16;
yr = 1;

use_noc_latency = 0;

//
// Routing
//

routing_function = ran_min;

//1: batch mode, 0: injection mode
use_read_write = 0;

//for injection mode
packet_size = 1;
injection_rate = 0.1;

//for batch mode
read_request_size=1;
write_request_size=1;
read_reply_size=1;
write_reply_size=1;

read_request_begin_vc  = 0;
read_request_end_vc    = 3;
write_reply_begin_vc   = 4;
write_reply_end_vc     = 7;
read_reply_begin_vc    = 4;
read_reply_end_vc      = 7;
write_request_begin_vc = 0;
write_request_end_vc   = 3;

//latency: drains all packet, throughput:no drain?
sim_type = latency;

watch_out = -;;END Configuration File: ../../booksim2/src/examples/flatflyconfig
OVERRIDE Parameter: routing_function=ugal
OVERRIDE Parameter: traffic=bitcomp
OVERRIDE Parameter: injection_rate={0.15}
OVERRIDE Parameter: c=16
OVERRIDE Parameter: k=16
OVERRIDE Parameter: x=16
OVERRIDE Parameter: xr=16
OVERRIDE Parameter: sim_type=latency
OVERRIDE Parameter: seed=1
 Flat Bufferfly 
 k = 16 n = 1 c = 16
 each switch - total radix =  31
 # of switches = 16
 # of channels = 240
 # of nodes ( size of network ) = 256
0 | node4 | Enqueuing flit 1 (packet 1) at time 0.
0 | traffic_manager | Finding output VC for flit 1:
0 | traffic_manager |   Selected output VC 0.
0 | node4 | Injecting flit 1 into subnet 0 at time 0 with priority 0.
1 | network_0/network_0_fchan_ingress4 | Beginning channel traversal for flit 1 with delay 1.
1 | network_0/network_0_fchan_ingress4 | Completed channel traversal for flit 1.
2 | network_0/router_0 | Received flit 1 from channel at input 4.
2 | network_0/router_0 | Adding flit 1 to VC 0 at input 4 (state: idle, empty).
2 | network_0/router_0/buf_4/vc_0 | Changing state from idle to routing.
2 | network_0/router_0 | Beginning routing for VC 0 at input 4 (front: 1).
2 | network_0/router_0 | Completed routing for VC 0 at input 4 (front: 1).
2 | network_0/router_0 |  MIN tmp_out_port: 302 | network_0/router_0 |  NONMIN tmp_out_port: 27
2 | network_0/router_0/buf_4/vc_0 | Changing state from routing to vc_alloc.
3 | network_0/router_0 | Beginning VC allocation for VC 0 at input 4 (front: 1).
3 | network_0/router_0 |   Requesting VC 1 at output 30 (in_pri: 0, out_pri: 0).
3 | network_0/router_0/vc_allocator | Input requests = [ 2 -> [ 61@0 ]  8 -> [ 61@0 ]  10 -> [ 61@0 ]  26 -> [ 61@0 ]  ], output requests = [ 61 -> [ 2@0 8@0 10@0 26@0 ]  ].
3 | network_0/router_0/vc_allocator | Input grants = [ 2 -> 61  ], output grants = [ 61 -> 2  ].
3 | network_0/router_0 | VC allocation failed for VC 0 at input 4.
3 | network_0/router_0 | Completed VC allocation for VC 0 at input 4 (front: 1).
3 | network_0/router_0 |   No output VC allocated.
3 | network_0/router_0 | Beginning VC allocation for VC 0 at input 4 (front: 1).
3 | network_0/router_0 |   VC 1 at output 30 is in use by VC 0 at input 1 (front flit: 0).
3 | network_0/router_0 | Completed VC allocation for VC 0 at input 4 (front: 1).
3 | network_0/router_0 |   No output VC allocated.
4 | network_0/router_0 | Beginning VC allocation for VC 0 at input 4 (front: 1).
4 | network_0/router_0 |   Requesting VC 1 at output 30 (in_pri: 0, out_pri: 0).
4 | network_0/router_0/vc_allocator | Input requests = [ 8 -> [ 61@0 ]  9 -> [ 61@0 ]  10 -> [ 61@0 ]  12 -> [ 61@0 ]  26 -> [ 61@0 ]  27 -> [ 61@0 ]  ], output requests = [ 61 -> [ 8@0 9@0 10@0 12@0 26@0 27@0 ]  ].
4 | network_0/router_0/vc_allocator | Input grants = [ 8 -> 61  ], output grants = [ 61 -> 8  ].
4 | network_0/router_0 | Assigning VC 1 at output 30 to VC 0 at input 4.
4 | network_0/router_0 | Completed VC allocation for VC 0 at input 4 (front: 1).
4 | network_0/router_0 |   Acquiring assigned VC 1 at output 30.
4 | network_0/router_0/buf_4/vc_0 | Changing state from vc_alloc to active.
4 | network_0/router_0 | Beginning switch allocation for VC 0 at input 4 (front: 1).
4 | network_0/router_0 |   Requesting output 30.0 (non-spec, pri: 0).
4 | network_0/router_0/sw_allocator | Input requests = [ 4 -> [ 30@0 ]  ], output requests = [ 30 -> [ 4@0 ]  ].
4 | network_0/router_0/sw_allocator | Input grants = [ 4 -> 30  ], output grants = [ 30 -> 4  ].
4 | network_0/router_0 | Assigning output 30.0 to VC 0 at input 4.0.
4 | network_0/router_0 | Completed switch allocation for VC 0 at input 4 (front: 1).
4 | network_0/router_0 |   Scheduling switch connection from input 4.0 to output 30.0.
5 | network_0/router_0 | Beginning crossbar traversal for flit 1 from input 4.0 to output 30.0.
5 | network_0/router_0 | Completed crossbar traversal for flit 1 from input 4.0 to output 30.0.
5 | network_0/router_0 | Buffering flit 1 at output 30.
5 | network_0/router_0 | Sending flit 1 to channel at output 30.
6 | network_0/network_0_fchan_14 | Beginning channel traversal for flit 1 with delay 1.
6 | network_0/network_0_fchan_14 | Completed channel traversal for flit 1.
7 | network_0/router_15 | Received flit 1 from channel at input 16.
7 | network_0/router_15 | Adding flit 1 to VC 1 at input 16 (state: active, front: 0).
7 | network_0/router_15/buf_16/vc_1 | Changing state from active to routing.
8 | network_0/router_15 | Beginning routing for VC 1 at input 16 (front: 1).
8 | network_0/router_15 | Completed routing for VC 1 at input 16 (front: 1).
8 | network_0/router_15/buf_16/vc_1 | Changing state from routing to vc_alloc.
8 | network_0/router_15 | Beginning VC allocation for VC 1 at input 16 (front: 1).
8 | network_0/router_15 |   Requesting VC 0 at output 11 (in_pri: 0, out_pri: 0).
8 | network_0/router_15 |   Requesting VC 1 at output 11 (in_pri: 0, out_pri: 0).
8 | network_0/router_15/vc_allocator | Input requests = [ 25 -> [ 46@0 ]  33 -> [ 22@0 23@0 ]  40 -> [ 55@0 ]  52 -> [ 43@0 ]  60 -> [ 35@0 ]  ], output requests = [ 22 -> [ 33@0 ]  23 -> [ 33@0 ]  35 -> [ 60@0 ]  43 -> [ 52@0 ]  46 -> [ 25@0 ]  55 -> [ 40@0 ]  ].
8 | network_0/router_15/vc_allocator | Input grants = [ 25 -> 46  33 -> 22  40 -> 55  52 -> 43  60 -> 35  ], output grants = [ 22 -> 33  35 -> 60  43 -> 52  46 -> 25  55 -> 40  ].
8 | network_0/router_15 | Assigning VC 0 at output 11 to VC 1 at input 16.
8 | network_0/router_15 | Completed VC allocation for VC 1 at input 16 (front: 1).
8 | network_0/router_15 |   Acquiring assigned VC 0 at output 11.
8 | network_0/router_15/buf_16/vc_1 | Changing state from vc_alloc to active.
9 | network_0/router_15 | Beginning switch allocation for VC 1 at input 16 (front: 1).
9 | network_0/router_15 |   Requesting output 11.0 (non-spec, pri: 0).
9 | network_0/router_15/sw_allocator | Input requests = [ 12 -> [ 23@0 ]  16 -> [ 11@0 ]  20 -> [ 27@0 ]  26 -> [ 21@0 ]  30 -> [ 17@0 ]  ], output requests = [ 11 -> [ 16@0 ]  17 -> [ 30@0 ]  21 -> [ 26@0 ]  23 -> [ 12@0 ]  27 -> [ 20@0 ]  ].
9 | network_0/router_15/sw_allocator | Input grants = [ 12 -> 23  16 -> 11  20 -> 27  26 -> 21  30 -> 17  ], output grants = [ 11 -> 16  17 -> 30  21 -> 26  23 -> 12  27 -> 20  ].
9 | network_0/router_15 | Assigning output 11.0 to VC 1 at input 16.0.
9 | network_0/router_15 | Completed switch allocation for VC 1 at input 16 (front: 1).
9 | network_0/router_15 |   Scheduling switch connection from input 16.0 to output 11.0.
9 | network_0/router_15 | Beginning crossbar traversal for flit 1 from input 16.0 to output 11.0.
9 | network_0/router_15 | Completed crossbar traversal for flit 1 from input 16.0 to output 11.0.
9 | network_0/router_15 | Buffering flit 1 at output 11.
9 | network_0/router_15 | Sending flit 1 to channel at output 11.
10 | network_0/network_0_fchan_egress251 | Beginning channel traversal for flit 1 with delay 1.
10 | network_0/network_0_fchan_egress251 | Completed channel traversal for flit 1.
11 | node251 | Ejecting flit 1 (packet 1) from VC 0.
11 | node251 | Injecting credit for VC 0 into subnet 0.
11 | node251 | Retiring flit 1 (packet 1, src = 4, dest = 251, hops = 2, flat = 11).
11 | node251 | Retiring packet 1 (plat = 11, nlat = 11, frag = 0, src = 4, dest = 251).
Class 0:
Packet latency average = 15.1667
	minimum = 9
	maximum = 50
Network latency average = 15.1667
	minimum = 9
	maximum = 50
Slowest packet = 5428
Flit latency average = 15.1667
	minimum = 9
	maximum = 50
Slowest flit = 5428
Fragmentation average = 0
	minimum = 0
	maximum = 0
Injected packet rate average = 0.149473
	minimum = 0.124 (at node 103)
	maximum = 0.179 (at node 157)
Accepted packet rate average = 0.147219
	minimum = 0.122 (at node 14)
	maximum = 0.177 (at node 122)
Injected flit rate average = 0.149473
	minimum = 0.124 (at node 103)
	maximum = 0.179 (at node 157)
Accepted flit rate average= 0.147219
	minimum = 0.122 (at node 14)
	maximum = 0.177 (at node 122)
Injected packet length average = 1
Accepted packet length average = 1
Total in-flight flits = 577 (0 measured)
latency change    = 1
throughput change = 1
Class 0:
Packet latency average = 15.1972
	minimum = 9
	maximum = 50
Network latency average = 15.1972
	minimum = 9
	maximum = 50
Slowest packet = 5428
Flit latency average = 15.1972
	minimum = 9
	maximum = 50
Slowest flit = 5428
Fragmentation average = 0
	minimum = 0
	maximum = 0
Injected packet rate average = 0.150158
	minimum = 0.1295 (at node 167)
	maximum = 0.1755 (at node 225)
Accepted packet rate average = 0.148992
	minimum = 0.129 (at node 88)
	maximum = 0.173 (at node 30)
Injected flit rate average = 0.150158
	minimum = 0.1295 (at node 167)
	maximum = 0.1755 (at node 225)
Accepted flit rate average= 0.148992
	minimum = 0.129 (at node 88)
	maximum = 0.173 (at node 30)
Injected packet length average = 1
Accepted packet length average = 1
Total in-flight flits = 597 (0 measured)
latency change    = 0.00201125
throughput change = 0.0119029
Class 0:
Packet latency average = 15.2224
	minimum = 9
	maximum = 51
Network latency average = 15.2224
	minimum = 9
	maximum = 51
Slowest packet = 113223
Flit latency average = 15.2224
	minimum = 9
	maximum = 51
Slowest flit = 113223
Fragmentation average = 0
	minimum = 0
	maximum = 0
Injected packet rate average = 0.15016
	minimum = 0.125 (at node 178)
	maximum = 0.183 (at node 223)
Accepted packet rate average = 0.149941
	minimum = 0.125 (at node 14)
	maximum = 0.182 (at node 32)
Injected flit rate average = 0.15016
	minimum = 0.125 (at node 178)
	maximum = 0.183 (at node 223)
Accepted flit rate average= 0.149941
	minimum = 0.125 (at node 14)
	maximum = 0.182 (at node 32)
Injected packet length average = 1
Accepted packet length average = 1
Total in-flight flits = 653 (0 measured)
latency change    = 0.00164907
throughput change = 0.0063306
Warmed up ...Time used is 3000 cycles
Class 0:
Packet latency average = 15.1847
	minimum = 9
	maximum = 48
Network latency average = 15.1847
	minimum = 9
	maximum = 48
Slowest packet = 151830
Flit latency average = 15.2133
	minimum = 9
	maximum = 52
Slowest flit = 113391
Fragmentation average = 0
	minimum = 0
	maximum = 0
Injected packet rate average = 0.150203
	minimum = 0.121 (at node 44)
	maximum = 0.183 (at node 34)
Accepted packet rate average = 0.150375
	minimum = 0.122 (at node 211)
	maximum = 0.185 (at node 221)
Injected flit rate average = 0.150203
	minimum = 0.121 (at node 44)
	maximum = 0.183 (at node 34)
Accepted flit rate average= 0.150375
	minimum = 0.122 (at node 211)
	maximum = 0.185 (at node 221)
Injected packet length average = 1
Accepted packet length average = 1
Total in-flight flits = 609 (609 measured)
latency change    = 0.00248243
throughput change = 0.00288342
Class 0:
Packet latency average = 15.1964
	minimum = 9
	maximum = 58
Network latency average = 15.1964
	minimum = 9
	maximum = 58
Slowest packet = 152032
Flit latency average = 15.2106
	minimum = 9
	maximum = 58
Slowest flit = 152032
Fragmentation average = 0
	minimum = 0
	maximum = 0
Injected packet rate average = 0.150021
	minimum = 0.125 (at node 192)
	maximum = 0.17 (at node 34)
Accepted packet rate average = 0.150139
	minimum = 0.1255 (at node 63)
	maximum = 0.1705 (at node 105)
Injected flit rate average = 0.150021
	minimum = 0.125 (at node 192)
	maximum = 0.17 (at node 34)
Accepted flit rate average= 0.150139
	minimum = 0.1255 (at node 63)
	maximum = 0.1705 (at node 105)
Injected packet length average = 1
Accepted packet length average = 1
Total in-flight flits = 593 (593 measured)
latency change    = 0.000772519
throughput change = 0.00157407
Class 0:
Packet latency average = 15.194
	minimum = 9
	maximum = 58
Network latency average = 15.194
	minimum = 9
	maximum = 58
Slowest packet = 152032
Flit latency average = 15.2035
	minimum = 9
	maximum = 58
Slowest flit = 152032
Fragmentation average = 0
	minimum = 0
	maximum = 0
Injected packet rate average = 0.150092
	minimum = 0.129667 (at node 22)
	maximum = 0.169 (at node 220)
Accepted packet rate average = 0.150215
	minimum = 0.131 (at node 63)
	maximum = 0.168 (at node 35)
Injected flit rate average = 0.150092
	minimum = 0.129667 (at node 22)
	maximum = 0.169 (at node 220)
Accepted flit rate average= 0.150215
	minimum = 0.131 (at node 63)
	maximum = 0.168 (at node 35)
Injected packet length average = 1
Accepted packet length average = 1
Total in-flight flits = 559 (559 measured)
latency change    = 0.000158992
throughput change = 0.000507086
Draining all recorded packets ...
Draining remaining packets ...
Time taken is 6049 cycles
====== Overall Traffic Statistics ======
====== Traffic class 0 ======
Packet latency average = 15.1949 (1 samples)
	minimum = 9 (1 samples)
	maximum = 58 (1 samples)
Network latency average = 15.1949 (1 samples)
	minimum = 9 (1 samples)
	maximum = 58 (1 samples)
Flit latency average = 15.2015 (1 samples)
	minimum = 9 (1 samples)
	maximum = 58 (1 samples)
Fragmentation average = 0 (1 samples)
	minimum = 0 (1 samples)
	maximum = 0 (1 samples)
Injected packet rate average = 0.150092 (1 samples)
	minimum = 0.129667 (1 samples)
	maximum = 0.169 (1 samples)
Accepted packet rate average = 0.150215 (1 samples)
	minimum = 0.131 (1 samples)
	maximum = 0.168 (1 samples)
Injected flit rate average = 0.150092 (1 samples)
	minimum = 0.129667 (1 samples)
	maximum = 0.169 (1 samples)
Accepted flit rate average = 0.150215 (1 samples)
	minimum = 0.131 (1 samples)
	maximum = 0.168 (1 samples)
Injected packet size average = 1 (1 samples)
Accepted packet size average = 1 (1 samples)
Hops average = 2.78127 (1 samples)
Total run time 25.8439
