BEGIN Configuration File: ../../booksim2/src/examples/flatflyconfig
// $Id$

// Copyright (c) 2007-2015, Trustees of The Leland Stanford Junior University
// All rights reserved.
//
// Redistribution and use in source and binary forms, with or without
// modification, are permitted provided that the following conditions are met:
//
// Redistributions of source code must retain the above copyright notice, this
// list of conditions and the following disclaimer.
// Redistributions in binary form must reproduce the above copyright notice,
// this list of conditions and the following disclaimer in the documentation
// and/or other materials provided with the distribution.
//
// THIS SOFTWARE IS PROVIDED BY THE COPYRIGHT HOLDERS AND CONTRIBUTORS "AS IS"
// AND ANY EXPRESS OR IMPLIED WARRANTIES, INCLUDING, BUT NOT LIMITED TO, THE
// IMPLIED WARRANTIES OF MERCHANTABILITY AND FITNESS FOR A PARTICULAR PURPOSE
// ARE DISCLAIMED. IN NO EVENT SHALL THE COPYRIGHT OWNER OR CONTRIBUTORS BE
// LIABLE FOR ANY DIRECT, INDIRECT, INCIDENTAL, SPECIAL, EXEMPLARY, OR
// CONSEQUENTIAL DAMAGES (INCLUDING, BUT NOT LIMITED TO, PROCUREMENT OF
// SUBSTITUTE GOODS OR SERVICES; LOSS OF USE, DATA, OR PROFITS; OR BUSINESS
// INTERRUPTION) HOWEVER CAUSED AND ON ANY THEORY OF LIABILITY, WHETHER IN
// CONTRACT, STRICT LIABILITY, OR TORT (INCLUDING NEGLIGENCE OR OTHERWISE)
// ARISING IN ANY WAY OUT OF THE USE OF THIS SOFTWARE, EVEN IF ADVISED OF THE
// POSSIBILITY OF SUCH DAMAGE.

//A flattened butterfly configurate file with many tweaks from the
//default settings. 


// Flow control
// Total number of VCs must match the above assignments
num_vcs     = 2;
vc_buf_size = 16;

wait_for_tail_credit = 0;

//
// Router architectureq
//
vc_allocator = islip; 
sw_allocator = islip;
alloc_iters  = 3;

credit_delay   = 0;
routing_delay  = 1;
vc_alloc_delay = 1;
sw_alloc_delay = 1;
st_final_delay = 1;

input_speedup     = 1;
output_speedup    = 1;
internal_speedup  = 1.6;

//
// Traffic
//

warmup_periods = 3;

sample_period  = 1000;  

sim_count          = 1;

traffic       = bitrev;


// Flatfly 
//
// #node = k^(n+1)
//
// x, y, specifies the arrangement of routers in x and y dim
// xr, yr specifiies the arayment of clients in a router
//
topology = flatfly;
subnets = 1;

c  = 16;
k  = 16;
n  = 1;

x  = 16;
y  = 1;
xr = 16;
yr = 1;

use_noc_latency = 0;

//
// Routing
//

routing_function = ugal;

//1: batch mode, 0: injection mode
use_read_write = 0;

//for injection mode
packet_size = 1;
injection_rate = 0.1;

//for batch mode
read_request_size=1;
write_request_size=1;
read_reply_size=1;
write_reply_size=1;

read_request_begin_vc  = 0;
read_request_end_vc    = 3;
write_reply_begin_vc   = 4;
write_reply_end_vc     = 7;
read_reply_begin_vc    = 4;
read_reply_end_vc      = 7;
write_request_begin_vc = 0;
write_request_end_vc   = 3;

//latency: drains all packet, throughput:no drain?
sim_type = latency;

watch_out = -;;END Configuration File: ../../booksim2/src/examples/flatflyconfig
OVERRIDE Parameter: routing_function=ugal
OVERRIDE Parameter: traffic=uniform
OVERRIDE Parameter: injection_rate={0.15}
OVERRIDE Parameter: c=16
OVERRIDE Parameter: k=16
OVERRIDE Parameter: x=16
OVERRIDE Parameter: xr=16
OVERRIDE Parameter: sim_type=latency
OVERRIDE Parameter: seed=1
 Flat Bufferfly 
 k = 16 n = 1 c = 16
 each switch - total radix =  31
 # of switches = 16
 # of channels = 240
 # of nodes ( size of network ) = 256
0 | node4 | Enqueuing flit 1 (packet 1) at time 0.
0 | traffic_manager | Finding output VC for flit 1:
0 | traffic_manager |   Selected output VC 0.
0 | node4 | Injecting flit 1 into subnet 0 at time 0 with priority 0.
1 | network_0/network_0_fchan_ingress4 | Beginning channel traversal for flit 1 with delay 1.
1 | network_0/network_0_fchan_ingress4 | Completed channel traversal for flit 1.
2 | network_0/router_0 | Received flit 1 from channel at input 4.
2 | network_0/router_0 | Adding flit 1 to VC 0 at input 4 (state: idle, empty).
2 | network_0/router_0/buf_4/vc_0 | Changing state from idle to routing.
2 | network_0/router_0 | Beginning routing for VC 0 at input 4 (front: 1).
2 | network_0/router_0 | Completed routing for VC 0 at input 4 (front: 1).
2 | network_0/router_0 |  MIN tmp_out_port: 202 | network_0/router_0 |  NONMIN tmp_out_port: 28
2 | network_0/router_0/buf_4/vc_0 | Changing state from routing to vc_alloc.
2 | network_0/router_0 | Beginning VC allocation for VC 0 at input 4 (front: 1).
2 | network_0/router_0 |   Requesting VC 1 at output 20 (in_pri: 0, out_pri: 0).
2 | network_0/router_0/vc_allocator | Input requests = [ 2 -> [ 12@0 13@0 ]  8 -> [ 41@0 ]  10 -> [ 57@0 ]  26 -> [ 33@0 ]  ], output requests = [ 12 -> [ 2@0 ]  13 -> [ 2@0 ]  33 -> [ 26@0 ]  41 -> [ 8@0 ]  57 -> [ 10@0 ]  ].
2 | network_0/router_0/vc_allocator | Input grants = [ 2 -> 12  8 -> 41  10 -> 57  26 -> 33  ], output grants = [ 12 -> 2  33 -> 26  41 -> 8  57 -> 10  ].
2 | network_0/router_0 | Assigning VC 1 at output 20 to VC 0 at input 4.
2 | network_0/router_0 | Completed VC allocation for VC 0 at input 4 (front: 1).
2 | network_0/router_0 |   Acquiring assigned VC 1 at output 20.
2 | network_0/router_0/buf_4/vc_0 | Changing state from vc_alloc to active.
2 | network_0/router_0 | Beginning switch allocation for VC 0 at input 4 (front: 1).
2 | network_0/router_0 |   Requesting output 20.0 (non-spec, pri: 0).
2 | network_0/router_0/sw_allocator | Input requests = [ 1 -> [ 6@0 ]  4 -> [ 20@0 ]  5 -> [ 28@0 ]  13 -> [ 16@0 ]  ], output requests = [ 6 -> [ 1@0 ]  16 -> [ 13@0 ]  20 -> [ 4@0 ]  28 -> [ 5@0 ]  ].
2 | network_0/router_0/sw_allocator | Input grants = [ 1 -> 6  4 -> 20  5 -> 28  13 -> 16  ], output grants = [ 6 -> 1  16 -> 13  20 -> 4  28 -> 5  ].
2 | network_0/router_0 | Assigning output 20.0 to VC 0 at input 4.0.
2 | network_0/router_0 | Completed switch allocation for VC 0 at input 4 (front: 1).
2 | network_0/router_0 |   Scheduling switch connection from input 4.0 to output 20.0.
2 | network_0/router_0 | Beginning crossbar traversal for flit 1 from input 4.0 to output 20.0.
2 | network_0/router_0 | Completed crossbar traversal for flit 1 from input 4.0 to output 20.0.
2 | network_0/router_0 | Buffering flit 1 at output 20.
2 | network_0/router_0 | Sending flit 1 to channel at output 20.
3 | network_0/network_0_fchan_4 | Beginning channel traversal for flit 1 with delay 1.
3 | network_0/network_0_fchan_4 | Completed channel traversal for flit 1.
4 | network_0/router_5 | Received flit 1 from channel at input 16.
4 | network_0/router_5 | Adding flit 1 to VC 1 at input 16 (state: idle, empty).
4 | network_0/router_5/buf_16/vc_1 | Changing state from idle to routing.
4 | network_0/router_5 | Beginning routing for VC 1 at input 16 (front: 1).
4 | network_0/router_5 | Completed routing for VC 1 at input 16 (front: 1).
4 | network_0/router_5/buf_16/vc_1 | Changing state from routing to vc_alloc.
4 | network_0/router_5 | Beginning VC allocation for VC 1 at input 16 (front: 1).
4 | network_0/router_5 |   Requesting VC 0 at output 9 (in_pri: 0, out_pri: 0).
4 | network_0/router_5 |   Requesting VC 1 at output 9 (in_pri: 0, out_pri: 0).
4 | network_0/router_5/vc_allocator | Input requests = [ 1 -> [ 35@0 ]  12 -> [ 51@0 ]  33 -> [ 18@0 19@0 ]  61 -> [ 4@0 5@0 ]  ], output requests = [ 4 -> [ 61@0 ]  5 -> [ 61@0 ]  18 -> [ 33@0 ]  19 -> [ 33@0 ]  35 -> [ 1@0 ]  51 -> [ 12@0 ]  ].
4 | network_0/router_5/vc_allocator | Input grants = [ 1 -> 35  12 -> 51  33 -> 18  61 -> 4  ], output grants = [ 4 -> 61  18 -> 33  35 -> 1  51 -> 12  ].
4 | network_0/router_5 | Assigning VC 0 at output 9 to VC 1 at input 16.
4 | network_0/router_5 | Completed VC allocation for VC 1 at input 16 (front: 1).
4 | network_0/router_5 |   Acquiring assigned VC 0 at output 9.
4 | network_0/router_5/buf_16/vc_1 | Changing state from vc_alloc to active.
4 | network_0/router_5 | Beginning switch allocation for VC 1 at input 16 (front: 1).
4 | network_0/router_5 |   Requesting output 9.0 (non-spec, pri: 0).
4 | network_0/router_5/sw_allocator | Input requests = [ 0 -> [ 17@0 ]  6 -> [ 25@0 ]  16 -> [ 9@0 ]  30 -> [ 2@0 ]  ], output requests = [ 2 -> [ 30@0 ]  9 -> [ 16@0 ]  17 -> [ 0@0 ]  25 -> [ 6@0 ]  ].
4 | network_0/router_5/sw_allocator | Input grants = [ 0 -> 17  6 -> 25  16 -> 9  30 -> 2  ], output grants = [ 2 -> 30  9 -> 16  17 -> 0  25 -> 6  ].
4 | network_0/router_5 | Assigning output 9.0 to VC 1 at input 16.0.
4 | network_0/router_5 | Completed switch allocation for VC 1 at input 16 (front: 1).
4 | network_0/router_5 |   Scheduling switch connection from input 16.0 to output 9.0.
4 | network_0/router_5 | Beginning crossbar traversal for flit 1 from input 16.0 to output 9.0.
4 | network_0/router_5 | Completed crossbar traversal for flit 1 from input 16.0 to output 9.0.
4 | network_0/router_5 | Buffering flit 1 at output 9.
4 | network_0/router_5 | Sending flit 1 to channel at output 9.
5 | network_0/network_0_fchan_egress89 | Beginning channel traversal for flit 1 with delay 1.
5 | network_0/network_0_fchan_egress89 | Completed channel traversal for flit 1.
6 | node89 | Ejecting flit 1 (packet 1) from VC 0.
6 | node89 | Injecting credit for VC 0 into subnet 0.
6 | node89 | Retiring flit 1 (packet 1, src = 4, dest = 89, hops = 2, flat = 6).
6 | node89 | Retiring packet 1 (plat = 6, nlat = 6, frag = 0, src = 4, dest = 89).
Class 0:
Packet latency average = 6.50809
	minimum = 4
	maximum = 13
Network latency average = 6.50809
	minimum = 4
	maximum = 13
Slowest packet = 8378
Flit latency average = 6.50809
	minimum = 4
	maximum = 13
Slowest flit = 8378
Fragmentation average = 0
	minimum = 0
	maximum = 0
Injected packet rate average = 0.149473
	minimum = 0.124 (at node 103)
	maximum = 0.179 (at node 157)
Accepted packet rate average = 0.148473
	minimum = 0.112 (at node 72)
	maximum = 0.187 (at node 182)
Injected flit rate average = 0.149473
	minimum = 0.124 (at node 103)
	maximum = 0.179 (at node 157)
Accepted flit rate average= 0.148473
	minimum = 0.112 (at node 72)
	maximum = 0.187 (at node 182)
Injected packet length average = 1
Accepted packet length average = 1
Total in-flight flits = 256 (0 measured)
latency change    = 1
throughput change = 1
Class 0:
Packet latency average = 6.50351
	minimum = 4
	maximum = 13
Network latency average = 6.50351
	minimum = 4
	maximum = 13
Slowest packet = 8378
Flit latency average = 6.50351
	minimum = 4
	maximum = 13
Slowest flit = 8378
Fragmentation average = 0
	minimum = 0
	maximum = 0
Injected packet rate average = 0.150158
	minimum = 0.1295 (at node 167)
	maximum = 0.1755 (at node 225)
Accepted packet rate average = 0.149668
	minimum = 0.129 (at node 134)
	maximum = 0.174 (at node 198)
Injected flit rate average = 0.150158
	minimum = 0.1295 (at node 167)
	maximum = 0.1755 (at node 225)
Accepted flit rate average= 0.149668
	minimum = 0.129 (at node 134)
	maximum = 0.174 (at node 198)
Injected packet length average = 1
Accepted packet length average = 1
Total in-flight flits = 251 (0 measured)
latency change    = 0.000704207
throughput change = 0.00798643
Class 0:
Packet latency average = 6.5018
	minimum = 4
	maximum = 13
Network latency average = 6.5018
	minimum = 4
	maximum = 13
Slowest packet = 76802
Flit latency average = 6.5018
	minimum = 4
	maximum = 13
Slowest flit = 76802
Fragmentation average = 0
	minimum = 0
	maximum = 0
Injected packet rate average = 0.15016
	minimum = 0.125 (at node 178)
	maximum = 0.183 (at node 223)
Accepted packet rate average = 0.150062
	minimum = 0.116 (at node 181)
	maximum = 0.194 (at node 55)
Injected flit rate average = 0.15016
	minimum = 0.125 (at node 178)
	maximum = 0.183 (at node 223)
Accepted flit rate average= 0.150062
	minimum = 0.116 (at node 181)
	maximum = 0.194 (at node 55)
Injected packet length average = 1
Accepted packet length average = 1
Total in-flight flits = 276 (0 measured)
latency change    = 0.000263658
throughput change = 0.00262911
Warmed up ...Time used is 3000 cycles
Class 0:
Packet latency average = 6.50459
	minimum = 4
	maximum = 12
Network latency average = 6.50459
	minimum = 4
	maximum = 12
Slowest packet = 116790
Flit latency average = 6.50649
	minimum = 4
	maximum = 12
Slowest flit = 116790
Fragmentation average = 0
	minimum = 0
	maximum = 0
Injected packet rate average = 0.150203
	minimum = 0.121 (at node 44)
	maximum = 0.183 (at node 34)
Accepted packet rate average = 0.150277
	minimum = 0.114 (at node 151)
	maximum = 0.182 (at node 0)
Injected flit rate average = 0.150203
	minimum = 0.121 (at node 44)
	maximum = 0.183 (at node 34)
Accepted flit rate average= 0.150277
	minimum = 0.114 (at node 151)
	maximum = 0.182 (at node 0)
Injected packet length average = 1
Accepted packet length average = 1
Total in-flight flits = 257 (257 measured)
latency change    = 0.000430267
throughput change = 0.00142965
Class 0:
Packet latency average = 6.50747
	minimum = 4
	maximum = 13
Network latency average = 6.50747
	minimum = 4
	maximum = 13
Slowest packet = 171837
Flit latency average = 6.5084
	minimum = 4
	maximum = 13
Slowest flit = 171837
Fragmentation average = 0
	minimum = 0
	maximum = 0
Injected packet rate average = 0.150021
	minimum = 0.125 (at node 192)
	maximum = 0.17 (at node 34)
Accepted packet rate average = 0.150025
	minimum = 0.1265 (at node 151)
	maximum = 0.1765 (at node 243)
Injected flit rate average = 0.150021
	minimum = 0.125 (at node 192)
	maximum = 0.17 (at node 34)
Accepted flit rate average= 0.150025
	minimum = 0.1265 (at node 151)
	maximum = 0.1765 (at node 243)
Injected packet length average = 1
Accepted packet length average = 1
Total in-flight flits = 274 (274 measured)
latency change    = 0.00044136
throughput change = 0.0016794
Class 0:
Packet latency average = 6.50833
	minimum = 4
	maximum = 13
Network latency average = 6.50833
	minimum = 4
	maximum = 13
Slowest packet = 171837
Flit latency average = 6.50895
	minimum = 4
	maximum = 13
Slowest flit = 171837
Fragmentation average = 0
	minimum = 0
	maximum = 0
Injected packet rate average = 0.150092
	minimum = 0.129667 (at node 22)
	maximum = 0.169 (at node 220)
Accepted packet rate average = 0.150147
	minimum = 0.130667 (at node 151)
	maximum = 0.168667 (at node 29)
Injected flit rate average = 0.150092
	minimum = 0.129667 (at node 22)
	maximum = 0.169 (at node 220)
Accepted flit rate average= 0.150147
	minimum = 0.130667 (at node 151)
	maximum = 0.168667 (at node 29)
Injected packet length average = 1
Accepted packet length average = 1
Total in-flight flits = 234 (234 measured)
latency change    = 0.000132926
throughput change = 0.000810837
Draining all recorded packets ...
Draining remaining packets ...
Time taken is 6019 cycles
====== Overall Traffic Statistics ======
====== Traffic class 0 ======
Packet latency average = 6.50909 (1 samples)
	minimum = 4 (1 samples)
	maximum = 13 (1 samples)
Network latency average = 6.50909 (1 samples)
	minimum = 4 (1 samples)
	maximum = 13 (1 samples)
Flit latency average = 6.50959 (1 samples)
	minimum = 4 (1 samples)
	maximum = 13 (1 samples)
Fragmentation average = 0 (1 samples)
	minimum = 0 (1 samples)
	maximum = 0 (1 samples)
Injected packet rate average = 0.150092 (1 samples)
	minimum = 0.129667 (1 samples)
	maximum = 0.169 (1 samples)
Accepted packet rate average = 0.150147 (1 samples)
	minimum = 0.130667 (1 samples)
	maximum = 0.168667 (1 samples)
Injected flit rate average = 0.150092 (1 samples)
	minimum = 0.129667 (1 samples)
	maximum = 0.169 (1 samples)
Accepted flit rate average = 0.150147 (1 samples)
	minimum = 0.130667 (1 samples)
	maximum = 0.168667 (1 samples)
Injected packet size average = 1 (1 samples)
Accepted packet size average = 1 (1 samples)
Hops average = 2.14652 (1 samples)
Total run time 41.6686
