BEGIN Configuration File: ../../booksim2/src/examples/flatflyconfig
// $Id$

// Copyright (c) 2007-2015, Trustees of The Leland Stanford Junior University
// All rights reserved.
//
// Redistribution and use in source and binary forms, with or without
// modification, are permitted provided that the following conditions are met:
//
// Redistributions of source code must retain the above copyright notice, this
// list of conditions and the following disclaimer.
// Redistributions in binary form must reproduce the above copyright notice,
// this list of conditions and the following disclaimer in the documentation
// and/or other materials provided with the distribution.
//
// THIS SOFTWARE IS PROVIDED BY THE COPYRIGHT HOLDERS AND CONTRIBUTORS "AS IS"
// AND ANY EXPRESS OR IMPLIED WARRANTIES, INCLUDING, BUT NOT LIMITED TO, THE
// IMPLIED WARRANTIES OF MERCHANTABILITY AND FITNESS FOR A PARTICULAR PURPOSE
// ARE DISCLAIMED. IN NO EVENT SHALL THE COPYRIGHT OWNER OR CONTRIBUTORS BE
// LIABLE FOR ANY DIRECT, INDIRECT, INCIDENTAL, SPECIAL, EXEMPLARY, OR
// CONSEQUENTIAL DAMAGES (INCLUDING, BUT NOT LIMITED TO, PROCUREMENT OF
// SUBSTITUTE GOODS OR SERVICES; LOSS OF USE, DATA, OR PROFITS; OR BUSINESS
// INTERRUPTION) HOWEVER CAUSED AND ON ANY THEORY OF LIABILITY, WHETHER IN
// CONTRACT, STRICT LIABILITY, OR TORT (INCLUDING NEGLIGENCE OR OTHERWISE)
// ARISING IN ANY WAY OUT OF THE USE OF THIS SOFTWARE, EVEN IF ADVISED OF THE
// POSSIBILITY OF SUCH DAMAGE.

//A flattened butterfly configurate file with many tweaks from the
//default settings. 


// Flow control
// Total number of VCs must match the above assignments
num_vcs     = 2;
vc_buf_size = 16;

wait_for_tail_credit = 0;

//
// Router architectureq
//
vc_allocator = islip; 
sw_allocator = islip;
alloc_iters  = 3;

credit_delay   = 0;
routing_delay  = 1;
vc_alloc_delay = 1;
sw_alloc_delay = 1;
st_final_delay = 1;

input_speedup     = 1;
output_speedup    = 1;
internal_speedup  = 1.6;

//
// Traffic
//

warmup_periods = 3;

sample_period  = 1000;  

sim_count          = 1;

traffic       = bitrev;


// Flatfly 
//
// #node = k^(n+1)
//
// x, y, specifies the arrangement of routers in x and y dim
// xr, yr specifiies the arayment of clients in a router
//
topology = flatfly;
subnets = 1;

c  = 16;
k  = 16;
n  = 1;

x  = 16;
y  = 1;
xr = 16;
yr = 1;

use_noc_latency = 0;

//
// Routing
//

routing_function = ran_min;

//1: batch mode, 0: injection mode
use_read_write = 0;

//for injection mode
packet_size = 1;
injection_rate = 0.1;

//for batch mode
read_request_size=1;
write_request_size=1;
read_reply_size=1;
write_reply_size=1;

read_request_begin_vc  = 0;
read_request_end_vc    = 3;
write_reply_begin_vc   = 4;
write_reply_end_vc     = 7;
read_reply_begin_vc    = 4;
read_reply_end_vc      = 7;
write_request_begin_vc = 0;
write_request_end_vc   = 3;

//latency: drains all packet, throughput:no drain?
sim_type = latency;

watch_out = -;;END Configuration File: ../../booksim2/src/examples/flatflyconfig
OVERRIDE Parameter: routing_function=ugal
OVERRIDE Parameter: traffic=bitcomp
OVERRIDE Parameter: injection_rate={0.05}
OVERRIDE Parameter: c=16
OVERRIDE Parameter: k=16
OVERRIDE Parameter: x=16
OVERRIDE Parameter: xr=16
OVERRIDE Parameter: sim_type=latency
OVERRIDE Parameter: seed=1
 Flat Bufferfly 
 k = 16 n = 1 c = 16
 each switch - total radix =  31
 # of switches = 16
 # of channels = 240
 # of nodes ( size of network ) = 256
0 | node5 | Enqueuing flit 1 (packet 1) at time 0.
0 | traffic_manager | Finding output VC for flit 1:
0 | traffic_manager |   Selected output VC 0.
0 | node5 | Injecting flit 1 into subnet 0 at time 0 with priority 0.
1 | network_0/network_0_fchan_ingress5 | Beginning channel traversal for flit 1 with delay 1.
1 | network_0/network_0_fchan_ingress5 | Completed channel traversal for flit 1.
2 | network_0/router_0 | Received flit 1 from channel at input 5.
2 | network_0/router_0 | Adding flit 1 to VC 0 at input 5 (state: idle, empty).
2 | network_0/router_0/buf_5/vc_0 | Changing state from idle to routing.
2 | network_0/router_0 | Beginning routing for VC 0 at input 5 (front: 1).
2 | network_0/router_0 | Completed routing for VC 0 at input 5 (front: 1).
2 | network_0/router_0 |  MIN tmp_out_port: 302 | network_0/router_0 |  NONMIN tmp_out_port: 28
2 | network_0/router_0/buf_5/vc_0 | Changing state from routing to vc_alloc.
3 | network_0/router_0 | Beginning VC allocation for VC 0 at input 5 (front: 1).
3 | network_0/router_0 |   Requesting VC 1 at output 30 (in_pri: 0, out_pri: 0).
3 | network_0/router_0/vc_allocator | Input requests = [ 8 -> [ 61@0 ]  10 -> [ 61@0 ]  ], output requests = [ 61 -> [ 8@0 10@0 ]  ].
3 | network_0/router_0/vc_allocator | Input grants = [ 8 -> 61  ], output grants = [ 61 -> 8  ].
3 | network_0/router_0 | VC allocation failed for VC 0 at input 5.
3 | network_0/router_0 | Completed VC allocation for VC 0 at input 5 (front: 1).
3 | network_0/router_0 |   No output VC allocated.
3 | network_0/router_0 | Beginning VC allocation for VC 0 at input 5 (front: 1).
3 | network_0/router_0 |   VC 1 at output 30 is in use by VC 0 at input 4 (front flit: 0).
3 | network_0/router_0 | Completed VC allocation for VC 0 at input 5 (front: 1).
3 | network_0/router_0 |   No output VC allocated.
4 | network_0/router_0 | Beginning VC allocation for VC 0 at input 5 (front: 1).
4 | network_0/router_0 |   Requesting VC 1 at output 30 (in_pri: 0, out_pri: 0).
4 | network_0/router_0/vc_allocator | Input requests = [ 9 -> [ 61@0 ]  10 -> [ 61@0 ]  ], output requests = [ 61 -> [ 9@0 10@0 ]  ].
4 | network_0/router_0/vc_allocator | Input grants = [ 9 -> 61  ], output grants = [ 61 -> 9  ].
4 | network_0/router_0 | VC allocation failed for VC 0 at input 5.
4 | network_0/router_0 | Completed VC allocation for VC 0 at input 5 (front: 1).
4 | network_0/router_0 |   No output VC allocated.
4 | network_0/router_0 | Beginning VC allocation for VC 0 at input 5 (front: 1).
4 | network_0/router_0 |   VC 1 at output 30 is in use by VC 1 at input 4 (front flit: 10).
4 | network_0/router_0 | Completed VC allocation for VC 0 at input 5 (front: 1).
4 | network_0/router_0 |   No output VC allocated.
5 | network_0/router_0 | Beginning VC allocation for VC 0 at input 5 (front: 1).
5 | network_0/router_0 |   Requesting VC 1 at output 30 (in_pri: 0, out_pri: 0).
5 | network_0/router_0/vc_allocator | Input requests = [ 10 -> [ 61@0 ]  18 -> [ 61@0 ]  ], output requests = [ 61 -> [ 10@0 18@0 ]  ].
5 | network_0/router_0/vc_allocator | Input grants = [ 10 -> 61  ], output grants = [ 61 -> 10  ].
5 | network_0/router_0 | Assigning VC 1 at output 30 to VC 0 at input 5.
5 | network_0/router_0 | Completed VC allocation for VC 0 at input 5 (front: 1).
5 | network_0/router_0 |   Acquiring assigned VC 1 at output 30.
5 | network_0/router_0/buf_5/vc_0 | Changing state from vc_alloc to active.
6 | network_0/router_0 | Beginning switch allocation for VC 0 at input 5 (front: 1).
6 | network_0/router_0 |   Requesting output 30.0 (non-spec, pri: 0).
6 | network_0/router_0/sw_allocator | Input requests = [ 5 -> [ 30@0 ]  ], output requests = [ 30 -> [ 5@0 ]  ].
6 | network_0/router_0/sw_allocator | Input grants = [ 5 -> 30  ], output grants = [ 30 -> 5  ].
6 | network_0/router_0 | Assigning output 30.0 to VC 0 at input 5.0.
6 | network_0/router_0 | Completed switch allocation for VC 0 at input 5 (front: 1).
6 | network_0/router_0 |   Scheduling switch connection from input 5.0 to output 30.0.
6 | network_0/router_0 | Beginning crossbar traversal for flit 1 from input 5.0 to output 30.0.
6 | network_0/router_0 | Completed crossbar traversal for flit 1 from input 5.0 to output 30.0.
6 | network_0/router_0 | Buffering flit 1 at output 30.
6 | network_0/router_0 | Sending flit 1 to channel at output 30.
7 | network_0/network_0_fchan_14 | Beginning channel traversal for flit 1 with delay 1.
7 | network_0/network_0_fchan_14 | Completed channel traversal for flit 1.
8 | network_0/router_15 | Received flit 1 from channel at input 16.
8 | network_0/router_15 | Adding flit 1 to VC 1 at input 16 (state: routing, front: 10).
9 | network_0/router_15/buf_16/vc_1 | Changing state from active to routing.
9 | network_0/router_15 | Beginning routing for VC 1 at input 16 (front: 1).
9 | network_0/router_15 | Completed routing for VC 1 at input 16 (front: 1).
9 | network_0/router_15/buf_16/vc_1 | Changing state from routing to vc_alloc.
10 | network_0/router_15 | Beginning VC allocation for VC 1 at input 16 (front: 1).
10 | network_0/router_15 |   Requesting VC 0 at output 10 (in_pri: 0, out_pri: 0).
10 | network_0/router_15 |   Requesting VC 1 at output 10 (in_pri: 0, out_pri: 0).
10 | network_0/router_15/vc_allocator | Input requests = [ 33 -> [ 20@0 21@0 ]  ], output requests = [ 20 -> [ 33@0 ]  21 -> [ 33@0 ]  ].
10 | network_0/router_15/vc_allocator | Input grants = [ 33 -> 20  ], output grants = [ 20 -> 33  ].
10 | network_0/router_15 | Assigning VC 0 at output 10 to VC 1 at input 16.
10 | network_0/router_15 | Completed VC allocation for VC 1 at input 16 (front: 1).
10 | network_0/router_15 |   Acquiring assigned VC 0 at output 10.
10 | network_0/router_15/buf_16/vc_1 | Changing state from vc_alloc to active.
11 | network_0/router_15 | Beginning switch allocation for VC 1 at input 16 (front: 1).
11 | network_0/router_15 |   Requesting output 10.0 (non-spec, pri: 0).
11 | network_0/router_15/sw_allocator | Input requests = [ 16 -> [ 10@0 ]  ], output requests = [ 10 -> [ 16@0 ]  ].
11 | network_0/router_15/sw_allocator | Input grants = [ 16 -> 10  ], output grants = [ 10 -> 16  ].
11 | network_0/router_15 | Assigning output 10.0 to VC 1 at input 16.0.
11 | network_0/router_15 | Completed switch allocation for VC 1 at input 16 (front: 1).
11 | network_0/router_15 |   Scheduling switch connection from input 16.0 to output 10.0.
11 | network_0/router_15 | Beginning crossbar traversal for flit 1 from input 16.0 to output 10.0.
11 | network_0/router_15 | Completed crossbar traversal for flit 1 from input 16.0 to output 10.0.
11 | network_0/router_15 | Buffering flit 1 at output 10.
11 | network_0/router_15 | Sending flit 1 to channel at output 10.
12 | network_0/network_0_fchan_egress250 | Beginning channel traversal for flit 1 with delay 1.
12 | network_0/network_0_fchan_egress250 | Completed channel traversal for flit 1.
13 | node250 | Ejecting flit 1 (packet 1) from VC 0.
13 | node250 | Injecting credit for VC 0 into subnet 0.
13 | node250 | Retiring flit 1 (packet 1, src = 5, dest = 250, hops = 2, flat = 13).
13 | node250 | Retiring packet 1 (plat = 13, nlat = 13, frag = 0, src = 5, dest = 250).
Class 0:
Packet latency average = 12.4458
	minimum = 9
	maximum = 23
Network latency average = 12.4458
	minimum = 9
	maximum = 23
Slowest packet = 11928
Flit latency average = 12.4458
	minimum = 9
	maximum = 23
Slowest flit = 11928
Fragmentation average = 0
	minimum = 0
	maximum = 0
Injected packet rate average = 0.0499805
	minimum = 0.03 (at node 208)
	maximum = 0.071 (at node 68)
Accepted packet rate average = 0.0493555
	minimum = 0.029 (at node 47)
	maximum = 0.07 (at node 113)
Injected flit rate average = 0.0499805
	minimum = 0.03 (at node 208)
	maximum = 0.071 (at node 68)
Accepted flit rate average= 0.0493555
	minimum = 0.029 (at node 47)
	maximum = 0.07 (at node 113)
Injected packet length average = 1
Accepted packet length average = 1
Total in-flight flits = 160 (0 measured)
latency change    = 1
throughput change = 1
Class 0:
Packet latency average = 12.4609
	minimum = 9
	maximum = 25
Network latency average = 12.4609
	minimum = 9
	maximum = 25
Slowest packet = 20519
Flit latency average = 12.4609
	minimum = 9
	maximum = 25
Slowest flit = 20519
Fragmentation average = 0
	minimum = 0
	maximum = 0
Injected packet rate average = 0.0503105
	minimum = 0.0345 (at node 214)
	maximum = 0.064 (at node 68)
Accepted packet rate average = 0.0499961
	minimum = 0.034 (at node 41)
	maximum = 0.0635 (at node 85)
Injected flit rate average = 0.0503105
	minimum = 0.0345 (at node 214)
	maximum = 0.064 (at node 68)
Accepted flit rate average= 0.0499961
	minimum = 0.034 (at node 41)
	maximum = 0.0635 (at node 85)
Injected packet length average = 1
Accepted packet length average = 1
Total in-flight flits = 161 (0 measured)
latency change    = 0.00120628
throughput change = 0.0128135
Class 0:
Packet latency average = 12.4227
	minimum = 9
	maximum = 21
Network latency average = 12.4227
	minimum = 9
	maximum = 21
Slowest packet = 34420
Flit latency average = 12.4227
	minimum = 9
	maximum = 21
Slowest flit = 34420
Fragmentation average = 0
	minimum = 0
	maximum = 0
Injected packet rate average = 0.0498555
	minimum = 0.035 (at node 34)
	maximum = 0.068 (at node 152)
Accepted packet rate average = 0.0498359
	minimum = 0.034 (at node 221)
	maximum = 0.069 (at node 103)
Injected flit rate average = 0.0498555
	minimum = 0.035 (at node 34)
	maximum = 0.068 (at node 152)
Accepted flit rate average= 0.0498359
	minimum = 0.034 (at node 221)
	maximum = 0.069 (at node 103)
Injected packet length average = 1
Accepted packet length average = 1
Total in-flight flits = 166 (0 measured)
latency change    = 0.00307028
throughput change = 0.00321367
Warmed up ...Time used is 3000 cycles
Class 0:
Packet latency average = 12.4393
	minimum = 9
	maximum = 20
Network latency average = 12.4393
	minimum = 9
	maximum = 20
Slowest packet = 38994
Flit latency average = 12.4415
	minimum = 9
	maximum = 20
Slowest flit = 38994
Fragmentation average = 0
	minimum = 0
	maximum = 0
Injected packet rate average = 0.0498906
	minimum = 0.031 (at node 185)
	maximum = 0.066 (at node 34)
Accepted packet rate average = 0.0498437
	minimum = 0.032 (at node 70)
	maximum = 0.067 (at node 221)
Injected flit rate average = 0.0498906
	minimum = 0.031 (at node 185)
	maximum = 0.066 (at node 34)
Accepted flit rate average= 0.0498437
	minimum = 0.032 (at node 70)
	maximum = 0.067 (at node 221)
Injected packet length average = 1
Accepted packet length average = 1
Total in-flight flits = 178 (178 measured)
latency change    = 0.00132979
throughput change = 0.00015674
Class 0:
Packet latency average = 12.4441
	minimum = 9
	maximum = 20
Network latency average = 12.4441
	minimum = 9
	maximum = 20
Slowest packet = 38994
Flit latency average = 12.4452
	minimum = 9
	maximum = 20
Slowest flit = 38994
Fragmentation average = 0
	minimum = 0
	maximum = 0
Injected packet rate average = 0.0501152
	minimum = 0.039 (at node 14)
	maximum = 0.0625 (at node 94)
Accepted packet rate average = 0.0500957
	minimum = 0.039 (at node 241)
	maximum = 0.062 (at node 161)
Injected flit rate average = 0.0501152
	minimum = 0.039 (at node 14)
	maximum = 0.0625 (at node 94)
Accepted flit rate average= 0.0500957
	minimum = 0.039 (at node 241)
	maximum = 0.062 (at node 161)
Injected packet length average = 1
Accepted packet length average = 1
Total in-flight flits = 176 (176 measured)
latency change    = 0.000392349
throughput change = 0.00502944
Class 0:
Packet latency average = 12.4428
	minimum = 9
	maximum = 25
Network latency average = 12.4428
	minimum = 9
	maximum = 25
Slowest packet = 72010
Flit latency average = 12.4436
	minimum = 9
	maximum = 25
Slowest flit = 72010
Fragmentation average = 0
	minimum = 0
	maximum = 0
Injected packet rate average = 0.0500898
	minimum = 0.0393333 (at node 192)
	maximum = 0.0606667 (at node 7)
Accepted packet rate average = 0.050112
	minimum = 0.0396667 (at node 63)
	maximum = 0.0613333 (at node 94)
Injected flit rate average = 0.0500898
	minimum = 0.0393333 (at node 192)
	maximum = 0.0606667 (at node 7)
Accepted flit rate average= 0.050112
	minimum = 0.0396667 (at node 63)
	maximum = 0.0613333 (at node 94)
Injected packet length average = 1
Accepted packet length average = 1
Total in-flight flits = 149 (149 measured)
latency change    = 0.000105735
throughput change = 0.000324793
Draining all recorded packets ...
Draining remaining packets ...
Time taken is 6034 cycles
====== Overall Traffic Statistics ======
====== Traffic class 0 ======
Packet latency average = 12.4438 (1 samples)
	minimum = 9 (1 samples)
	maximum = 25 (1 samples)
Network latency average = 12.4438 (1 samples)
	minimum = 9 (1 samples)
	maximum = 25 (1 samples)
Flit latency average = 12.444 (1 samples)
	minimum = 9 (1 samples)
	maximum = 25 (1 samples)
Fragmentation average = 0 (1 samples)
	minimum = 0 (1 samples)
	maximum = 0 (1 samples)
Injected packet rate average = 0.0500898 (1 samples)
	minimum = 0.0393333 (1 samples)
	maximum = 0.0606667 (1 samples)
Accepted packet rate average = 0.050112 (1 samples)
	minimum = 0.0396667 (1 samples)
	maximum = 0.0613333 (1 samples)
Injected flit rate average = 0.0500898 (1 samples)
	minimum = 0.0393333 (1 samples)
	maximum = 0.0606667 (1 samples)
Accepted flit rate average = 0.050112 (1 samples)
	minimum = 0.0396667 (1 samples)
	maximum = 0.0613333 (1 samples)
Injected packet size average = 1 (1 samples)
Accepted packet size average = 1 (1 samples)
Hops average = 2.60152 (1 samples)
Total run time 10.5133
