BEGIN Configuration File: ../../booksim2/src/examples/flatflyconfig
// $Id$

// Copyright (c) 2007-2015, Trustees of The Leland Stanford Junior University
// All rights reserved.
//
// Redistribution and use in source and binary forms, with or without
// modification, are permitted provided that the following conditions are met:
//
// Redistributions of source code must retain the above copyright notice, this
// list of conditions and the following disclaimer.
// Redistributions in binary form must reproduce the above copyright notice,
// this list of conditions and the following disclaimer in the documentation
// and/or other materials provided with the distribution.
//
// THIS SOFTWARE IS PROVIDED BY THE COPYRIGHT HOLDERS AND CONTRIBUTORS "AS IS"
// AND ANY EXPRESS OR IMPLIED WARRANTIES, INCLUDING, BUT NOT LIMITED TO, THE
// IMPLIED WARRANTIES OF MERCHANTABILITY AND FITNESS FOR A PARTICULAR PURPOSE
// ARE DISCLAIMED. IN NO EVENT SHALL THE COPYRIGHT OWNER OR CONTRIBUTORS BE
// LIABLE FOR ANY DIRECT, INDIRECT, INCIDENTAL, SPECIAL, EXEMPLARY, OR
// CONSEQUENTIAL DAMAGES (INCLUDING, BUT NOT LIMITED TO, PROCUREMENT OF
// SUBSTITUTE GOODS OR SERVICES; LOSS OF USE, DATA, OR PROFITS; OR BUSINESS
// INTERRUPTION) HOWEVER CAUSED AND ON ANY THEORY OF LIABILITY, WHETHER IN
// CONTRACT, STRICT LIABILITY, OR TORT (INCLUDING NEGLIGENCE OR OTHERWISE)
// ARISING IN ANY WAY OUT OF THE USE OF THIS SOFTWARE, EVEN IF ADVISED OF THE
// POSSIBILITY OF SUCH DAMAGE.

//A flattened butterfly configurate file with many tweaks from the
//default settings. 


// Flow control
// Total number of VCs must match the above assignments
num_vcs     = 2;
vc_buf_size = 16;

wait_for_tail_credit = 0;

//
// Router architectureq
//
vc_allocator = islip; 
sw_allocator = islip;
alloc_iters  = 3;

credit_delay   = 0;
routing_delay  = 1;
vc_alloc_delay = 1;
sw_alloc_delay = 1;
st_final_delay = 1;

input_speedup     = 1;
output_speedup    = 1;
internal_speedup  = 1.6;

//
// Traffic
//

warmup_periods = 3;

sample_period  = 1000;  

sim_count          = 1;

traffic       = bitrev;


// Flatfly 
//
// #node = k^(n+1)
//
// x, y, specifies the arrangement of routers in x and y dim
// xr, yr specifiies the arayment of clients in a router
//
topology = flatfly;
subnets = 1;

c  = 16;
k  = 16;
n  = 1;

x  = 16;
y  = 1;
xr = 16;
yr = 1;

use_noc_latency = 0;

//
// Routing
//

routing_function = ran_min;

//1: batch mode, 0: injection mode
use_read_write = 0;

//for injection mode
packet_size = 1;
injection_rate = 0.1;

//for batch mode
read_request_size=1;
write_request_size=1;
read_reply_size=1;
write_reply_size=1;

read_request_begin_vc  = 0;
read_request_end_vc    = 3;
write_reply_begin_vc   = 4;
write_reply_end_vc     = 7;
read_reply_begin_vc    = 4;
read_reply_end_vc      = 7;
write_request_begin_vc = 0;
write_request_end_vc   = 3;

//latency: drains all packet, throughput:no drain?
sim_type = latency;

watch_out = -;;END Configuration File: ../../booksim2/src/examples/flatflyconfig
OVERRIDE Parameter: routing_function=ugal
OVERRIDE Parameter: traffic=uniform
OVERRIDE Parameter: injection_rate={0.1}
OVERRIDE Parameter: c=16
OVERRIDE Parameter: k=16
OVERRIDE Parameter: x=16
OVERRIDE Parameter: xr=16
OVERRIDE Parameter: sim_type=latency
OVERRIDE Parameter: seed=1
 Flat Bufferfly 
 k = 16 n = 1 c = 16
 each switch - total radix =  31
 # of switches = 16
 # of channels = 240
 # of nodes ( size of network ) = 256
0 | node5 | Enqueuing flit 1 (packet 1) at time 0.
0 | traffic_manager | Finding output VC for flit 1:
0 | traffic_manager |   Selected output VC 0.
0 | node5 | Injecting flit 1 into subnet 0 at time 0 with priority 0.
1 | network_0/network_0_fchan_ingress5 | Beginning channel traversal for flit 1 with delay 1.
1 | network_0/network_0_fchan_ingress5 | Completed channel traversal for flit 1.
2 | network_0/router_0 | Received flit 1 from channel at input 5.
2 | network_0/router_0 | Adding flit 1 to VC 0 at input 5 (state: idle, empty).
2 | network_0/router_0/buf_5/vc_0 | Changing state from idle to routing.
2 | network_0/router_0 | Beginning routing for VC 0 at input 5 (front: 1).
2 | network_0/router_0 | Completed routing for VC 0 at input 5 (front: 1).
2 | network_0/router_0 |  MIN tmp_out_port: 202 | network_0/router_0 |  NONMIN tmp_out_port: 19
2 | network_0/router_0/buf_5/vc_0 | Changing state from routing to vc_alloc.
3 | network_0/router_0 | Beginning VC allocation for VC 0 at input 5 (front: 1).
3 | network_0/router_0 |   Requesting VC 1 at output 20 (in_pri: 0, out_pri: 0).
3 | network_0/router_0/vc_allocator | Input requests = [ 8 -> [ 12@0 13@0 ]  10 -> [ 41@0 ]  26 -> [ 57@0 ]  ], output requests = [ 12 -> [ 8@0 ]  13 -> [ 8@0 ]  41 -> [ 10@0 ]  57 -> [ 26@0 ]  ].
3 | network_0/router_0/vc_allocator | Input grants = [ 8 -> 12  10 -> 41  26 -> 57  ], output grants = [ 12 -> 8  41 -> 10  57 -> 26  ].
3 | network_0/router_0 | Assigning VC 1 at output 20 to VC 0 at input 5.
3 | network_0/router_0 | Completed VC allocation for VC 0 at input 5 (front: 1).
3 | network_0/router_0 |   Acquiring assigned VC 1 at output 20.
3 | network_0/router_0/buf_5/vc_0 | Changing state from vc_alloc to active.
3 | network_0/router_0 | Beginning switch allocation for VC 0 at input 5 (front: 1).
3 | network_0/router_0 |   Requesting output 20.0 (non-spec, pri: 0).
3 | network_0/router_0/sw_allocator | Input requests = [ 4 -> [ 6@0 ]  5 -> [ 20@0 ]  13 -> [ 28@0 ]  ], output requests = [ 6 -> [ 4@0 ]  20 -> [ 5@0 ]  28 -> [ 13@0 ]  ].
3 | network_0/router_0/sw_allocator | Input grants = [ 4 -> 6  5 -> 20  13 -> 28  ], output grants = [ 6 -> 4  20 -> 5  28 -> 13  ].
3 | network_0/router_0 | Assigning output 20.0 to VC 0 at input 5.0.
3 | network_0/router_0 | Completed switch allocation for VC 0 at input 5 (front: 1).
3 | network_0/router_0 |   Scheduling switch connection from input 5.0 to output 20.0.
4 | network_0/router_0 | Beginning crossbar traversal for flit 1 from input 5.0 to output 20.0.
4 | network_0/router_0 | Completed crossbar traversal for flit 1 from input 5.0 to output 20.0.
4 | network_0/router_0 | Buffering flit 1 at output 20.
4 | network_0/router_0 | Sending flit 1 to channel at output 20.
5 | network_0/network_0_fchan_4 | Beginning channel traversal for flit 1 with delay 1.
5 | network_0/network_0_fchan_4 | Completed channel traversal for flit 1.
6 | network_0/router_5 | Received flit 1 from channel at input 16.
6 | network_0/router_5 | Adding flit 1 to VC 1 at input 16 (state: idle, empty).
6 | network_0/router_5/buf_16/vc_1 | Changing state from idle to routing.
6 | network_0/router_5 | Beginning routing for VC 1 at input 16 (front: 1).
6 | network_0/router_5 | Completed routing for VC 1 at input 16 (front: 1).
6 | network_0/router_5/buf_16/vc_1 | Changing state from routing to vc_alloc.
6 | network_0/router_5 | Beginning VC allocation for VC 1 at input 16 (front: 1).
6 | network_0/router_5 |   Requesting VC 0 at output 9 (in_pri: 0, out_pri: 0).
6 | network_0/router_5 |   Requesting VC 1 at output 9 (in_pri: 0, out_pri: 0).
6 | network_0/router_5/vc_allocator | Input requests = [ 8 -> [ 46@0 ]  13 -> [ 47@0 ]  25 -> [ 35@0 ]  33 -> [ 18@0 19@0 ]  61 -> [ 4@0 5@0 ]  ], output requests = [ 4 -> [ 61@0 ]  5 -> [ 61@0 ]  18 -> [ 33@0 ]  19 -> [ 33@0 ]  35 -> [ 25@0 ]  46 -> [ 8@0 ]  47 -> [ 13@0 ]  ].
6 | network_0/router_5/vc_allocator | Input grants = [ 8 -> 46  13 -> 47  25 -> 35  33 -> 18  61 -> 4  ], output grants = [ 4 -> 61  18 -> 33  35 -> 25  46 -> 8  47 -> 13  ].
6 | network_0/router_5 | Assigning VC 0 at output 9 to VC 1 at input 16.
6 | network_0/router_5 | Completed VC allocation for VC 1 at input 16 (front: 1).
6 | network_0/router_5 |   Acquiring assigned VC 0 at output 9.
6 | network_0/router_5/buf_16/vc_1 | Changing state from vc_alloc to active.
7 | network_0/router_5 | Beginning switch allocation for VC 1 at input 16 (front: 1).
7 | network_0/router_5 |   Requesting output 9.0 (non-spec, pri: 0).
7 | network_0/router_5/sw_allocator | Input requests = [ 4 -> [ 23@0 ]  6 -> [ 23@0 ]  12 -> [ 17@0 ]  16 -> [ 9@0 ]  30 -> [ 2@0 ]  ], output requests = [ 2 -> [ 30@0 ]  9 -> [ 16@0 ]  17 -> [ 12@0 ]  23 -> [ 4@0 6@0 ]  ].
7 | network_0/router_5/sw_allocator | Input grants = [ 4 -> 23  12 -> 17  16 -> 9  30 -> 2  ], output grants = [ 2 -> 30  9 -> 16  17 -> 12  23 -> 4  ].
7 | network_0/router_5 | Assigning output 9.0 to VC 1 at input 16.0.
7 | network_0/router_5 | Completed switch allocation for VC 1 at input 16 (front: 1).
7 | network_0/router_5 |   Scheduling switch connection from input 16.0 to output 9.0.
8 | network_0/router_5 | Beginning crossbar traversal for flit 1 from input 16.0 to output 9.0.
8 | network_0/router_5 | Completed crossbar traversal for flit 1 from input 16.0 to output 9.0.
8 | network_0/router_5 | Buffering flit 1 at output 9.
8 | network_0/router_5 | Sending flit 1 to channel at output 9.
9 | network_0/network_0_fchan_egress89 | Beginning channel traversal for flit 1 with delay 1.
9 | network_0/network_0_fchan_egress89 | Completed channel traversal for flit 1.
10 | node89 | Ejecting flit 1 (packet 1) from VC 0.
10 | node89 | Injecting credit for VC 0 into subnet 0.
10 | node89 | Retiring flit 1 (packet 1, src = 5, dest = 89, hops = 2, flat = 10).
10 | node89 | Retiring packet 1 (plat = 10, nlat = 10, frag = 0, src = 5, dest = 89).
Class 0:
Packet latency average = 10.4933
	minimum = 5
	maximum = 20
Network latency average = 10.4933
	minimum = 5
	maximum = 20
Slowest packet = 8749
Flit latency average = 10.4933
	minimum = 5
	maximum = 20
Slowest flit = 8749
Fragmentation average = 0
	minimum = 0
	maximum = 0
Injected packet rate average = 0.0996172
	minimum = 0.078 (at node 153)
	maximum = 0.128 (at node 68)
Accepted packet rate average = 0.0984648
	minimum = 0.072 (at node 27)
	maximum = 0.127 (at node 147)
Injected flit rate average = 0.0996172
	minimum = 0.078 (at node 153)
	maximum = 0.128 (at node 68)
Accepted flit rate average= 0.0984648
	minimum = 0.072 (at node 27)
	maximum = 0.127 (at node 147)
Injected packet length average = 1
Accepted packet length average = 1
Total in-flight flits = 295 (0 measured)
latency change    = 1
throughput change = 1
Class 0:
Packet latency average = 10.4913
	minimum = 5
	maximum = 20
Network latency average = 10.4913
	minimum = 5
	maximum = 20
Slowest packet = 8749
Flit latency average = 10.4913
	minimum = 5
	maximum = 20
Slowest flit = 8749
Fragmentation average = 0
	minimum = 0
	maximum = 0
Injected packet rate average = 0.100078
	minimum = 0.0805 (at node 153)
	maximum = 0.121 (at node 68)
Accepted packet rate average = 0.099541
	minimum = 0.0795 (at node 102)
	maximum = 0.118 (at node 147)
Injected flit rate average = 0.100078
	minimum = 0.0805 (at node 153)
	maximum = 0.121 (at node 68)
Accepted flit rate average= 0.099541
	minimum = 0.0795 (at node 102)
	maximum = 0.118 (at node 147)
Injected packet length average = 1
Accepted packet length average = 1
Total in-flight flits = 275 (0 measured)
latency change    = 0.000186641
throughput change = 0.0108113
Class 0:
Packet latency average = 10.4595
	minimum = 5
	maximum = 21
Network latency average = 10.4595
	minimum = 5
	maximum = 21
Slowest packet = 67418
Flit latency average = 10.4595
	minimum = 5
	maximum = 21
Slowest flit = 67418
Fragmentation average = 0
	minimum = 0
	maximum = 0
Injected packet rate average = 0.100062
	minimum = 0.078 (at node 127)
	maximum = 0.13 (at node 112)
Accepted packet rate average = 0.0999961
	minimum = 0.068 (at node 143)
	maximum = 0.131 (at node 251)
Injected flit rate average = 0.100062
	minimum = 0.078 (at node 127)
	maximum = 0.13 (at node 112)
Accepted flit rate average= 0.0999961
	minimum = 0.068 (at node 143)
	maximum = 0.131 (at node 251)
Injected packet length average = 1
Accepted packet length average = 1
Total in-flight flits = 292 (0 measured)
latency change    = 0.00304101
throughput change = 0.00455096
Warmed up ...Time used is 3000 cycles
Class 0:
Packet latency average = 10.4435
	minimum = 5
	maximum = 20
Network latency average = 10.4435
	minimum = 5
	maximum = 20
Slowest packet = 94220
Flit latency average = 10.4489
	minimum = 5
	maximum = 20
Slowest flit = 94220
Fragmentation average = 0
	minimum = 0
	maximum = 0
Injected packet rate average = 0.100172
	minimum = 0.079 (at node 44)
	maximum = 0.131 (at node 34)
Accepted packet rate average = 0.100148
	minimum = 0.07 (at node 51)
	maximum = 0.129 (at node 54)
Injected flit rate average = 0.100172
	minimum = 0.079 (at node 44)
	maximum = 0.131 (at node 34)
Accepted flit rate average= 0.100148
	minimum = 0.07 (at node 51)
	maximum = 0.129 (at node 54)
Injected packet length average = 1
Accepted packet length average = 1
Total in-flight flits = 298 (298 measured)
latency change    = 0.00152906
throughput change = 0.00152118
Class 0:
Packet latency average = 10.4561
	minimum = 5
	maximum = 22
Network latency average = 10.4561
	minimum = 5
	maximum = 22
Slowest packet = 117558
Flit latency average = 10.4587
	minimum = 5
	maximum = 22
Slowest flit = 117558
Fragmentation average = 0
	minimum = 0
	maximum = 0
Injected packet rate average = 0.10008
	minimum = 0.0825 (at node 22)
	maximum = 0.1185 (at node 94)
Accepted packet rate average = 0.100094
	minimum = 0.0815 (at node 247)
	maximum = 0.1165 (at node 193)
Injected flit rate average = 0.10008
	minimum = 0.0825 (at node 22)
	maximum = 0.1185 (at node 94)
Accepted flit rate average= 0.100094
	minimum = 0.0815 (at node 247)
	maximum = 0.1165 (at node 193)
Injected packet length average = 1
Accepted packet length average = 1
Total in-flight flits = 285 (285 measured)
latency change    = 0.00120477
throughput change = 0.000546363
Class 0:
Packet latency average = 10.4611
	minimum = 5
	maximum = 22
Network latency average = 10.4611
	minimum = 5
	maximum = 22
Slowest packet = 117558
Flit latency average = 10.4628
	minimum = 5
	maximum = 22
Slowest flit = 117558
Fragmentation average = 0
	minimum = 0
	maximum = 0
Injected packet rate average = 0.100271
	minimum = 0.0843333 (at node 22)
	maximum = 0.116333 (at node 94)
Accepted packet rate average = 0.10029
	minimum = 0.0863333 (at node 118)
	maximum = 0.115 (at node 148)
Injected flit rate average = 0.100271
	minimum = 0.0843333 (at node 22)
	maximum = 0.116333 (at node 94)
Accepted flit rate average= 0.10029
	minimum = 0.0863333 (at node 118)
	maximum = 0.115 (at node 148)
Injected packet length average = 1
Accepted packet length average = 1
Total in-flight flits = 277 (277 measured)
latency change    = 0.000477177
throughput change = 0.00196045
Draining all recorded packets ...
Draining remaining packets ...
Time taken is 6029 cycles
====== Overall Traffic Statistics ======
====== Traffic class 0 ======
Packet latency average = 10.4625 (1 samples)
	minimum = 5 (1 samples)
	maximum = 22 (1 samples)
Network latency average = 10.4625 (1 samples)
	minimum = 5 (1 samples)
	maximum = 22 (1 samples)
Flit latency average = 10.4637 (1 samples)
	minimum = 5 (1 samples)
	maximum = 22 (1 samples)
Fragmentation average = 0 (1 samples)
	minimum = 0 (1 samples)
	maximum = 0 (1 samples)
Injected packet rate average = 0.100271 (1 samples)
	minimum = 0.0843333 (1 samples)
	maximum = 0.116333 (1 samples)
Accepted packet rate average = 0.10029 (1 samples)
	minimum = 0.0863333 (1 samples)
	maximum = 0.115 (1 samples)
Injected flit rate average = 0.100271 (1 samples)
	minimum = 0.0843333 (1 samples)
	maximum = 0.116333 (1 samples)
Accepted flit rate average = 0.10029 (1 samples)
	minimum = 0.0863333 (1 samples)
	maximum = 0.115 (1 samples)
Injected packet size average = 1 (1 samples)
Accepted packet size average = 1 (1 samples)
Hops average = 2.14469 (1 samples)
Total run time 15.6996
