BEGIN Configuration File: ../../../../booksim2/src/examples/flatflyconfig
// $Id$

// Copyright (c) 2007-2015, Trustees of The Leland Stanford Junior University
// All rights reserved.
//
// Redistribution and use in source and binary forms, with or without
// modification, are permitted provided that the following conditions are met:
//
// Redistributions of source code must retain the above copyright notice, this
// list of conditions and the following disclaimer.
// Redistributions in binary form must reproduce the above copyright notice,
// this list of conditions and the following disclaimer in the documentation
// and/or other materials provided with the distribution.
//
// THIS SOFTWARE IS PROVIDED BY THE COPYRIGHT HOLDERS AND CONTRIBUTORS "AS IS"
// AND ANY EXPRESS OR IMPLIED WARRANTIES, INCLUDING, BUT NOT LIMITED TO, THE
// IMPLIED WARRANTIES OF MERCHANTABILITY AND FITNESS FOR A PARTICULAR PURPOSE
// ARE DISCLAIMED. IN NO EVENT SHALL THE COPYRIGHT OWNER OR CONTRIBUTORS BE
// LIABLE FOR ANY DIRECT, INDIRECT, INCIDENTAL, SPECIAL, EXEMPLARY, OR
// CONSEQUENTIAL DAMAGES (INCLUDING, BUT NOT LIMITED TO, PROCUREMENT OF
// SUBSTITUTE GOODS OR SERVICES; LOSS OF USE, DATA, OR PROFITS; OR BUSINESS
// INTERRUPTION) HOWEVER CAUSED AND ON ANY THEORY OF LIABILITY, WHETHER IN
// CONTRACT, STRICT LIABILITY, OR TORT (INCLUDING NEGLIGENCE OR OTHERWISE)
// ARISING IN ANY WAY OUT OF THE USE OF THIS SOFTWARE, EVEN IF ADVISED OF THE
// POSSIBILITY OF SUCH DAMAGE.

//A flattened butterfly configurate file with many tweaks from the
//default settings. 


// Flow control
// Total number of VCs must match the above assignments
num_vcs     = 2;
vc_buf_size = 16;

wait_for_tail_credit = 0;

//
// Router architectureq
//
vc_allocator = islip; 
sw_allocator = islip;
alloc_iters  = 3;

credit_delay   = 0;
routing_delay  = 1;
vc_alloc_delay = 1;
sw_alloc_delay = 1;
st_final_delay = 1;

input_speedup     = 1;
output_speedup    = 1;
internal_speedup  = 1.6;

//
// Traffic
//

warmup_periods = 3;

sample_period  = 1000;  

sim_count          = 1;

traffic       = uniform;


// Flatfly 
//
// #node = k^(n+1)
//
// x, y, specifies the arrangement of routers in x and y dim
// xr, yr specifiies the arayment of clients in a router
//
topology = flatfly;
subnets = 1;

c  = 6;
k  = 6;
n  = 2;

x  = 6;
y  = 6;
xr = 6;
yr = 1;

use_noc_latency = 0;

//
// Routing
//

routing_function = ran_min;

//1: batch mode, 0: injection mode
use_read_write = 0;

//for injection mode
packet_size = 1;
injection_rate = 0.1;

//for batch mode
read_request_size=1;
write_request_size=1;
read_reply_size=1;
write_reply_size=1;

read_request_begin_vc  = 0;
read_request_end_vc    = 3;
write_reply_begin_vc   = 4;
write_reply_end_vc     = 7;
read_reply_begin_vc    = 4;
read_reply_end_vc      = 7;
write_request_begin_vc = 0;
write_request_end_vc   = 3;

//latency: drains all packet, throughput:no drain?
sim_type = latency;

END Configuration File: ../../../../booksim2/src/examples/flatflyconfig
OVERRIDE Parameter: sim_type=latency
OVERRIDE Parameter: traffic=uniform
OVERRIDE Parameter: injection_rate={0.75}
 Flat Bufferfly 
 k = 6 n = 2 c = 6
 each switch - total radix =  16
 # of switches = 36
 # of channels = 360
 # of nodes ( size of network ) = 216
Class 0:
Packet latency average = 29.2645
	minimum = 5
	maximum = 93
Network latency average = 29.2645
	minimum = 5
	maximum = 93
Slowest packet = 84793
Flit latency average = 29.2645
	minimum = 5
	maximum = 93
Slowest flit = 84793
Fragmentation average = 0
	minimum = 0
	maximum = 0
Injected packet rate average = 0.749505
	minimum = 0.705 (at node 116)
	maximum = 0.789 (at node 162)
Accepted packet rate average = 0.724435
	minimum = 0.65 (at node 30)
	maximum = 0.799 (at node 34)
Injected flit rate average = 0.749505
	minimum = 0.705 (at node 116)
	maximum = 0.789 (at node 162)
Accepted flit rate average= 0.724435
	minimum = 0.65 (at node 30)
	maximum = 0.799 (at node 34)
Injected packet length average = 1
Accepted packet length average = 1
Total in-flight flits = 5415 (0 measured)
latency change    = 1
throughput change = 1
Class 0:
Packet latency average = 32.0475
	minimum = 5
	maximum = 106
Network latency average = 32.0475
	minimum = 5
	maximum = 106
Slowest packet = 301107
Flit latency average = 32.0475
	minimum = 5
	maximum = 106
Slowest flit = 301107
Fragmentation average = 0
	minimum = 0
	maximum = 0
Injected packet rate average = 0.749037
	minimum = 0.726 (at node 44)
	maximum = 0.7695 (at node 79)
Accepted packet rate average = 0.735956
	minimum = 0.6955 (at node 30)
	maximum = 0.7995 (at node 34)
Injected flit rate average = 0.749037
	minimum = 0.726 (at node 44)
	maximum = 0.7695 (at node 79)
Accepted flit rate average= 0.735956
	minimum = 0.6955 (at node 30)
	maximum = 0.7995 (at node 34)
Injected packet length average = 1
Accepted packet length average = 1
Total in-flight flits = 5651 (0 measured)
latency change    = 0.0868393
throughput change = 0.0156542
Class 0:
Packet latency average = 35.3097
	minimum = 5
	maximum = 101
Network latency average = 35.3097
	minimum = 5
	maximum = 101
Slowest packet = 384992
Flit latency average = 35.3097
	minimum = 5
	maximum = 101
Slowest flit = 384992
Fragmentation average = 0
	minimum = 0
	maximum = 0
Injected packet rate average = 0.749167
	minimum = 0.704 (at node 210)
	maximum = 0.785 (at node 183)
Accepted packet rate average = 0.748954
	minimum = 0.655 (at node 167)
	maximum = 0.818 (at node 183)
Injected flit rate average = 0.749167
	minimum = 0.704 (at node 210)
	maximum = 0.785 (at node 183)
Accepted flit rate average= 0.748954
	minimum = 0.655 (at node 167)
	maximum = 0.818 (at node 183)
Injected packet length average = 1
Accepted packet length average = 1
Total in-flight flits = 5697 (0 measured)
latency change    = 0.0923873
throughput change = 0.0173545
Warmed up ...Time used is 3000 cycles
Class 0:
Packet latency average = 34.8223
	minimum = 5
	maximum = 100
Network latency average = 34.8223
	minimum = 5
	maximum = 100
Slowest packet = 608918
Flit latency average = 35.09
	minimum = 5
	maximum = 100
Slowest flit = 608918
Fragmentation average = 0
	minimum = 0
	maximum = 0
Injected packet rate average = 0.749833
	minimum = 0.711 (at node 58)
	maximum = 0.78 (at node 200)
Accepted packet rate average = 0.750319
	minimum = 0.658 (at node 179)
	maximum = 0.817 (at node 209)
Injected flit rate average = 0.749833
	minimum = 0.711 (at node 58)
	maximum = 0.78 (at node 200)
Accepted flit rate average= 0.750319
	minimum = 0.658 (at node 179)
	maximum = 0.817 (at node 209)
Injected packet length average = 1
Accepted packet length average = 1
Total in-flight flits = 5592 (5592 measured)
latency change    = 0.0139961
throughput change = 0.00182021
Class 0:
Packet latency average = 35.0998
	minimum = 5
	maximum = 108
Network latency average = 35.0998
	minimum = 5
	maximum = 108
Slowest packet = 774363
Flit latency average = 35.2288
	minimum = 5
	maximum = 108
Slowest flit = 774363
Fragmentation average = 0
	minimum = 0
	maximum = 0
Injected packet rate average = 0.750306
	minimum = 0.7245 (at node 18)
	maximum = 0.7765 (at node 165)
Accepted packet rate average = 0.75003
	minimum = 0.6905 (at node 179)
	maximum = 0.7965 (at node 92)
Injected flit rate average = 0.750306
	minimum = 0.7245 (at node 18)
	maximum = 0.7765 (at node 165)
Accepted flit rate average= 0.75003
	minimum = 0.6905 (at node 179)
	maximum = 0.7965 (at node 92)
Injected packet length average = 1
Accepted packet length average = 1
Total in-flight flits = 5816 (5816 measured)
latency change    = 0.0079067
throughput change = 0.000385787
Class 0:
Packet latency average = 35.3405
	minimum = 5
	maximum = 139
Network latency average = 35.3343
	minimum = 5
	maximum = 139
Slowest packet = 851183
Flit latency average = 35.4175
	minimum = 5
	maximum = 139
Slowest flit = 851183
Fragmentation average = 0
	minimum = 0
	maximum = 0
Injected packet rate average = 0.750153
	minimum = 0.726667 (at node 71)
	maximum = 0.774 (at node 165)
Accepted packet rate average = 0.75023
	minimum = 0.703333 (at node 179)
	maximum = 0.788667 (at node 113)
Injected flit rate average = 0.750153
	minimum = 0.726667 (at node 71)
	maximum = 0.774 (at node 165)
Accepted flit rate average= 0.75023
	minimum = 0.703333 (at node 179)
	maximum = 0.788667 (at node 113)
Injected packet length average = 1
Accepted packet length average = 1
Total in-flight flits = 5647 (5647 measured)
latency change    = 0.00681006
throughput change = 0.000266379
Draining all recorded packets ...
Draining remaining packets ...
Time taken is 6143 cycles
====== Overall Traffic Statistics ======
====== Traffic class 0 ======
Packet latency average = 35.421 (1 samples)
	minimum = 5 (1 samples)
	maximum = 139 (1 samples)
Network latency average = 35.4149 (1 samples)
	minimum = 5 (1 samples)
	maximum = 139 (1 samples)
Flit latency average = 35.463 (1 samples)
	minimum = 5 (1 samples)
	maximum = 139 (1 samples)
Fragmentation average = 0 (1 samples)
	minimum = 0 (1 samples)
	maximum = 0 (1 samples)
Injected packet rate average = 0.750153 (1 samples)
	minimum = 0.726667 (1 samples)
	maximum = 0.774 (1 samples)
Accepted packet rate average = 0.75023 (1 samples)
	minimum = 0.703333 (1 samples)
	maximum = 0.788667 (1 samples)
Injected flit rate average = 0.750153 (1 samples)
	minimum = 0.726667 (1 samples)
	maximum = 0.774 (1 samples)
Accepted flit rate average = 0.75023 (1 samples)
	minimum = 0.703333 (1 samples)
	maximum = 0.788667 (1 samples)
Injected packet size average = 1 (1 samples)
Accepted packet size average = 1 (1 samples)
Hops average = 2.66702 (1 samples)
Total run time 7.64157
