BEGIN Configuration File: ../../../../booksim2/src/examples/flatflyconfig
// $Id$

// Copyright (c) 2007-2015, Trustees of The Leland Stanford Junior University
// All rights reserved.
//
// Redistribution and use in source and binary forms, with or without
// modification, are permitted provided that the following conditions are met:
//
// Redistributions of source code must retain the above copyright notice, this
// list of conditions and the following disclaimer.
// Redistributions in binary form must reproduce the above copyright notice,
// this list of conditions and the following disclaimer in the documentation
// and/or other materials provided with the distribution.
//
// THIS SOFTWARE IS PROVIDED BY THE COPYRIGHT HOLDERS AND CONTRIBUTORS "AS IS"
// AND ANY EXPRESS OR IMPLIED WARRANTIES, INCLUDING, BUT NOT LIMITED TO, THE
// IMPLIED WARRANTIES OF MERCHANTABILITY AND FITNESS FOR A PARTICULAR PURPOSE
// ARE DISCLAIMED. IN NO EVENT SHALL THE COPYRIGHT OWNER OR CONTRIBUTORS BE
// LIABLE FOR ANY DIRECT, INDIRECT, INCIDENTAL, SPECIAL, EXEMPLARY, OR
// CONSEQUENTIAL DAMAGES (INCLUDING, BUT NOT LIMITED TO, PROCUREMENT OF
// SUBSTITUTE GOODS OR SERVICES; LOSS OF USE, DATA, OR PROFITS; OR BUSINESS
// INTERRUPTION) HOWEVER CAUSED AND ON ANY THEORY OF LIABILITY, WHETHER IN
// CONTRACT, STRICT LIABILITY, OR TORT (INCLUDING NEGLIGENCE OR OTHERWISE)
// ARISING IN ANY WAY OUT OF THE USE OF THIS SOFTWARE, EVEN IF ADVISED OF THE
// POSSIBILITY OF SUCH DAMAGE.

//A flattened butterfly configurate file with many tweaks from the
//default settings. 


// Flow control
// Total number of VCs must match the above assignments
num_vcs     = 2;
vc_buf_size = 16;

wait_for_tail_credit = 0;

//
// Router architectureq
//
vc_allocator = islip; 
sw_allocator = islip;
alloc_iters  = 3;

credit_delay   = 0;
routing_delay  = 1;
vc_alloc_delay = 1;
sw_alloc_delay = 1;
st_final_delay = 1;

input_speedup     = 1;
output_speedup    = 1;
internal_speedup  = 1.6;

//
// Traffic
//

warmup_periods = 3;

sample_period  = 1000;  

sim_count          = 1;

traffic       = uniform;


// Flatfly 
//
// #node = k^(n+1)
//
// x, y, specifies the arrangement of routers in x and y dim
// xr, yr specifiies the arayment of clients in a router
//
topology = flatfly;
subnets = 1;

c  = 6;
k  = 6;
n  = 2;

x  = 6;
y  = 6;
xr = 6;
yr = 1;

use_noc_latency = 0;

//
// Routing
//

routing_function = ran_min;

//1: batch mode, 0: injection mode
use_read_write = 0;

//for injection mode
packet_size = 1;
injection_rate = 0.1;

//for batch mode
read_request_size=1;
write_request_size=1;
read_reply_size=1;
write_reply_size=1;

read_request_begin_vc  = 0;
read_request_end_vc    = 3;
write_reply_begin_vc   = 4;
write_reply_end_vc     = 7;
read_reply_begin_vc    = 4;
read_reply_end_vc      = 7;
write_request_begin_vc = 0;
write_request_end_vc   = 3;

//latency: drains all packet, throughput:no drain?
sim_type = latency;

END Configuration File: ../../../../booksim2/src/examples/flatflyconfig
OVERRIDE Parameter: sim_type=latency
OVERRIDE Parameter: traffic=uniform
OVERRIDE Parameter: injection_rate={0.475}
 Flat Bufferfly 
 k = 6 n = 2 c = 6
 each switch - total radix =  16
 # of switches = 36
 # of channels = 360
 # of nodes ( size of network ) = 216
Class 0:
Packet latency average = 14.0359
	minimum = 5
	maximum = 30
Network latency average = 14.0359
	minimum = 5
	maximum = 30
Slowest packet = 38546
Flit latency average = 14.0359
	minimum = 5
	maximum = 30
Slowest flit = 38546
Fragmentation average = 0
	minimum = 0
	maximum = 0
Injected packet rate average = 0.474968
	minimum = 0.435 (at node 99)
	maximum = 0.519 (at node 82)
Accepted packet rate average = 0.468241
	minimum = 0.42 (at node 30)
	maximum = 0.53 (at node 34)
Injected flit rate average = 0.474968
	minimum = 0.435 (at node 99)
	maximum = 0.519 (at node 82)
Accepted flit rate average= 0.468241
	minimum = 0.42 (at node 30)
	maximum = 0.53 (at node 34)
Injected packet length average = 1
Accepted packet length average = 1
Total in-flight flits = 1453 (0 measured)
latency change    = 1
throughput change = 1
Class 0:
Packet latency average = 14.0446
	minimum = 5
	maximum = 30
Network latency average = 14.0446
	minimum = 5
	maximum = 30
Slowest packet = 38546
Flit latency average = 14.0446
	minimum = 5
	maximum = 30
Slowest flit = 38546
Fragmentation average = 0
	minimum = 0
	maximum = 0
Injected packet rate average = 0.475329
	minimum = 0.445 (at node 99)
	maximum = 0.5035 (at node 82)
Accepted packet rate average = 0.471914
	minimum = 0.441 (at node 207)
	maximum = 0.5145 (at node 34)
Injected flit rate average = 0.475329
	minimum = 0.445 (at node 99)
	maximum = 0.5035 (at node 82)
Accepted flit rate average= 0.471914
	minimum = 0.441 (at node 207)
	maximum = 0.5145 (at node 34)
Injected packet length average = 1
Accepted packet length average = 1
Total in-flight flits = 1475 (0 measured)
latency change    = 0.000619612
throughput change = 0.00778449
Class 0:
Packet latency average = 14.0814
	minimum = 5
	maximum = 31
Network latency average = 14.0814
	minimum = 5
	maximum = 31
Slowest packet = 215432
Flit latency average = 14.0814
	minimum = 5
	maximum = 31
Slowest flit = 215432
Fragmentation average = 0
	minimum = 0
	maximum = 0
Injected packet rate average = 0.475329
	minimum = 0.429 (at node 210)
	maximum = 0.521 (at node 168)
Accepted packet rate average = 0.475389
	minimum = 0.432 (at node 137)
	maximum = 0.545 (at node 110)
Injected flit rate average = 0.475329
	minimum = 0.429 (at node 210)
	maximum = 0.521 (at node 168)
Accepted flit rate average= 0.475389
	minimum = 0.432 (at node 137)
	maximum = 0.545 (at node 110)
Injected packet length average = 1
Accepted packet length average = 1
Total in-flight flits = 1462 (0 measured)
latency change    = 0.00261496
throughput change = 0.00730883
Warmed up ...Time used is 3000 cycles
Class 0:
Packet latency average = 14.0623
	minimum = 5
	maximum = 31
Network latency average = 14.0623
	minimum = 5
	maximum = 31
Slowest packet = 330761
Flit latency average = 14.0724
	minimum = 5
	maximum = 31
Slowest flit = 330761
Fragmentation average = 0
	minimum = 0
	maximum = 0
Injected packet rate average = 0.475727
	minimum = 0.43 (at node 39)
	maximum = 0.521 (at node 75)
Accepted packet rate average = 0.475745
	minimum = 0.391 (at node 167)
	maximum = 0.529 (at node 83)
Injected flit rate average = 0.475727
	minimum = 0.43 (at node 39)
	maximum = 0.521 (at node 75)
Accepted flit rate average= 0.475745
	minimum = 0.391 (at node 167)
	maximum = 0.529 (at node 83)
Injected packet length average = 1
Accepted packet length average = 1
Total in-flight flits = 1458 (1458 measured)
latency change    = 0.00135576
throughput change = 0.000749312
Class 0:
Packet latency average = 14.066
	minimum = 5
	maximum = 31
Network latency average = 14.066
	minimum = 5
	maximum = 31
Slowest packet = 330761
Flit latency average = 14.071
	minimum = 5
	maximum = 31
Slowest flit = 330761
Fragmentation average = 0
	minimum = 0
	maximum = 0
Injected packet rate average = 0.47556
	minimum = 0.444 (at node 135)
	maximum = 0.508 (at node 122)
Accepted packet rate average = 0.475583
	minimum = 0.423 (at node 167)
	maximum = 0.514 (at node 5)
Injected flit rate average = 0.47556
	minimum = 0.444 (at node 135)
	maximum = 0.508 (at node 122)
Accepted flit rate average= 0.475583
	minimum = 0.423 (at node 167)
	maximum = 0.514 (at node 5)
Injected packet length average = 1
Accepted packet length average = 1
Total in-flight flits = 1452 (1452 measured)
latency change    = 0.000261821
throughput change = 0.000340712
Class 0:
Packet latency average = 14.0643
	minimum = 5
	maximum = 31
Network latency average = 14.0643
	minimum = 5
	maximum = 31
Slowest packet = 330761
Flit latency average = 14.0677
	minimum = 5
	maximum = 31
Slowest flit = 330761
Fragmentation average = 0
	minimum = 0
	maximum = 0
Injected packet rate average = 0.474921
	minimum = 0.448 (at node 135)
	maximum = 0.497 (at node 2)
Accepted packet rate average = 0.474912
	minimum = 0.428 (at node 167)
	maximum = 0.506 (at node 209)
Injected flit rate average = 0.474921
	minimum = 0.448 (at node 135)
	maximum = 0.497 (at node 2)
Accepted flit rate average= 0.474912
	minimum = 0.428 (at node 167)
	maximum = 0.506 (at node 209)
Injected packet length average = 1
Accepted packet length average = 1
Total in-flight flits = 1468 (1468 measured)
latency change    = 0.000118983
throughput change = 0.00141352
Draining all recorded packets ...
Draining remaining packets ...
Time taken is 6043 cycles
====== Overall Traffic Statistics ======
====== Traffic class 0 ======
Packet latency average = 14.0679 (1 samples)
	minimum = 5 (1 samples)
	maximum = 31 (1 samples)
Network latency average = 14.0679 (1 samples)
	minimum = 5 (1 samples)
	maximum = 31 (1 samples)
Flit latency average = 14.0713 (1 samples)
	minimum = 5 (1 samples)
	maximum = 31 (1 samples)
Fragmentation average = 0 (1 samples)
	minimum = 0 (1 samples)
	maximum = 0 (1 samples)
Injected packet rate average = 0.474921 (1 samples)
	minimum = 0.448 (1 samples)
	maximum = 0.497 (1 samples)
Accepted packet rate average = 0.474912 (1 samples)
	minimum = 0.428 (1 samples)
	maximum = 0.506 (1 samples)
Injected flit rate average = 0.474921 (1 samples)
	minimum = 0.448 (1 samples)
	maximum = 0.497 (1 samples)
Accepted flit rate average = 0.474912 (1 samples)
	minimum = 0.428 (1 samples)
	maximum = 0.506 (1 samples)
Injected packet size average = 1 (1 samples)
Accepted packet size average = 1 (1 samples)
Hops average = 2.66678 (1 samples)
Total run time 5.12957
