BEGIN Configuration File: ../../../../booksim2/src/examples/flatflyconfig
// $Id$

// Copyright (c) 2007-2015, Trustees of The Leland Stanford Junior University
// All rights reserved.
//
// Redistribution and use in source and binary forms, with or without
// modification, are permitted provided that the following conditions are met:
//
// Redistributions of source code must retain the above copyright notice, this
// list of conditions and the following disclaimer.
// Redistributions in binary form must reproduce the above copyright notice,
// this list of conditions and the following disclaimer in the documentation
// and/or other materials provided with the distribution.
//
// THIS SOFTWARE IS PROVIDED BY THE COPYRIGHT HOLDERS AND CONTRIBUTORS "AS IS"
// AND ANY EXPRESS OR IMPLIED WARRANTIES, INCLUDING, BUT NOT LIMITED TO, THE
// IMPLIED WARRANTIES OF MERCHANTABILITY AND FITNESS FOR A PARTICULAR PURPOSE
// ARE DISCLAIMED. IN NO EVENT SHALL THE COPYRIGHT OWNER OR CONTRIBUTORS BE
// LIABLE FOR ANY DIRECT, INDIRECT, INCIDENTAL, SPECIAL, EXEMPLARY, OR
// CONSEQUENTIAL DAMAGES (INCLUDING, BUT NOT LIMITED TO, PROCUREMENT OF
// SUBSTITUTE GOODS OR SERVICES; LOSS OF USE, DATA, OR PROFITS; OR BUSINESS
// INTERRUPTION) HOWEVER CAUSED AND ON ANY THEORY OF LIABILITY, WHETHER IN
// CONTRACT, STRICT LIABILITY, OR TORT (INCLUDING NEGLIGENCE OR OTHERWISE)
// ARISING IN ANY WAY OUT OF THE USE OF THIS SOFTWARE, EVEN IF ADVISED OF THE
// POSSIBILITY OF SUCH DAMAGE.

//A flattened butterfly configurate file with many tweaks from the
//default settings. 


// Flow control
// Total number of VCs must match the above assignments
num_vcs     = 2;
vc_buf_size = 16;

wait_for_tail_credit = 0;

//
// Router architectureq
//
vc_allocator = islip; 
sw_allocator = islip;
alloc_iters  = 3;

credit_delay   = 0;
routing_delay  = 1;
vc_alloc_delay = 1;
sw_alloc_delay = 1;
st_final_delay = 1;

input_speedup     = 1;
output_speedup    = 1;
internal_speedup  = 1.6;

//
// Traffic
//

warmup_periods = 3;

sample_period  = 1000;  

sim_count          = 1;

traffic       = uniform;


// Flatfly 
//
// #node = k^(n+1)
//
// x, y, specifies the arrangement of routers in x and y dim
// xr, yr specifiies the arayment of clients in a router
//
topology = flatfly;
subnets = 1;

c  = 6;
k  = 6;
n  = 2;

x  = 6;
y  = 6;
xr = 6;
yr = 1;

use_noc_latency = 0;

//
// Routing
//

routing_function = ran_min;

//1: batch mode, 0: injection mode
use_read_write = 0;

//for injection mode
packet_size = 1;
injection_rate = 0.1;

//for batch mode
read_request_size=1;
write_request_size=1;
read_reply_size=1;
write_reply_size=1;

read_request_begin_vc  = 0;
read_request_end_vc    = 3;
write_reply_begin_vc   = 4;
write_reply_end_vc     = 7;
read_reply_begin_vc    = 4;
read_reply_end_vc      = 7;
write_request_begin_vc = 0;
write_request_end_vc   = 3;

//latency: drains all packet, throughput:no drain?
sim_type = latency;

END Configuration File: ../../../../booksim2/src/examples/flatflyconfig
OVERRIDE Parameter: sim_type=latency
OVERRIDE Parameter: traffic=uniform
OVERRIDE Parameter: injection_rate={0.775}
 Flat Bufferfly 
 k = 6 n = 2 c = 6
 each switch - total radix =  16
 # of switches = 36
 # of channels = 360
 # of nodes ( size of network ) = 216
Class 0:
Packet latency average = 34.5358
	minimum = 5
	maximum = 123
Network latency average = 34.5354
	minimum = 5
	maximum = 123
Slowest packet = 132462
Flit latency average = 34.5354
	minimum = 5
	maximum = 123
Slowest flit = 132462
Fragmentation average = 0
	minimum = 0
	maximum = 0
Injected packet rate average = 0.774093
	minimum = 0.74 (at node 116)
	maximum = 0.809 (at node 12)
Accepted packet rate average = 0.740532
	minimum = 0.669 (at node 165)
	maximum = 0.825 (at node 34)
Injected flit rate average = 0.774093
	minimum = 0.74 (at node 116)
	maximum = 0.809 (at node 12)
Accepted flit rate average= 0.740532
	minimum = 0.669 (at node 165)
	maximum = 0.825 (at node 34)
Injected packet length average = 1
Accepted packet length average = 1
Total in-flight flits = 7249 (0 measured)
latency change    = 1
throughput change = 1
Class 0:
Packet latency average = 41.5704
	minimum = 5
	maximum = 168
Network latency average = 41.36
	minimum = 5
	maximum = 153
Slowest packet = 196543
Flit latency average = 41.36
	minimum = 5
	maximum = 153
Slowest flit = 289504
Fragmentation average = 0
	minimum = 0
	maximum = 0
Injected packet rate average = 0.773331
	minimum = 0.7485 (at node 8)
	maximum = 0.793 (at node 34)
Accepted packet rate average = 0.75341
	minimum = 0.7125 (at node 153)
	maximum = 0.8185 (at node 34)
Injected flit rate average = 0.773331
	minimum = 0.7485 (at node 8)
	maximum = 0.793 (at node 34)
Accepted flit rate average= 0.75341
	minimum = 0.7125 (at node 153)
	maximum = 0.8185 (at node 34)
Injected packet length average = 1
Accepted packet length average = 1
Total in-flight flits = 8613 (0 measured)
latency change    = 0.169222
throughput change = 0.017092
Class 0:
Packet latency average = 56.0826
	minimum = 5
	maximum = 193
Network latency average = 54.1214
	minimum = 5
	maximum = 143
Slowest packet = 318566
Flit latency average = 54.1214
	minimum = 5
	maximum = 143
Slowest flit = 344073
Fragmentation average = 0
	minimum = 0
	maximum = 0
Injected packet rate average = 0.77363
	minimum = 0.737 (at node 132)
	maximum = 0.808 (at node 182)
Accepted packet rate average = 0.77019
	minimum = 0.677 (at node 167)
	maximum = 0.834 (at node 183)
Injected flit rate average = 0.77363
	minimum = 0.737 (at node 132)
	maximum = 0.808 (at node 182)
Accepted flit rate average= 0.77019
	minimum = 0.677 (at node 167)
	maximum = 0.834 (at node 183)
Injected packet length average = 1
Accepted packet length average = 1
Total in-flight flits = 9362 (0 measured)
latency change    = 0.258765
throughput change = 0.021787
Warmed up ...Time used is 3000 cycles
Class 0:
Packet latency average = 58.9741
	minimum = 5
	maximum = 186
Network latency average = 56.3631
	minimum = 5
	maximum = 151
Slowest packet = 501291
Flit latency average = 56.868
	minimum = 5
	maximum = 151
Slowest flit = 535337
Fragmentation average = 0
	minimum = 0
	maximum = 0
Injected packet rate average = 0.773523
	minimum = 0.739 (at node 33)
	maximum = 0.804 (at node 205)
Accepted packet rate average = 0.770977
	minimum = 0.685 (at node 179)
	maximum = 0.836 (at node 2)
Injected flit rate average = 0.773523
	minimum = 0.739 (at node 33)
	maximum = 0.804 (at node 205)
Accepted flit rate average= 0.770977
	minimum = 0.685 (at node 179)
	maximum = 0.836 (at node 2)
Injected packet length average = 1
Accepted packet length average = 1
Total in-flight flits = 9913 (9913 measured)
latency change    = 0.0490298
throughput change = 0.00102083
Class 0:
Packet latency average = 61.6645
	minimum = 5
	maximum = 207
Network latency average = 58.0466
	minimum = 5
	maximum = 157
Slowest packet = 501291
Flit latency average = 58.2516
	minimum = 5
	maximum = 157
Slowest flit = 665253
Fragmentation average = 0
	minimum = 0
	maximum = 0
Injected packet rate average = 0.773523
	minimum = 0.7475 (at node 86)
	maximum = 0.7935 (at node 104)
Accepted packet rate average = 0.771632
	minimum = 0.7195 (at node 192)
	maximum = 0.82 (at node 158)
Injected flit rate average = 0.773523
	minimum = 0.7475 (at node 86)
	maximum = 0.7935 (at node 104)
Accepted flit rate average= 0.771632
	minimum = 0.7195 (at node 192)
	maximum = 0.82 (at node 158)
Injected packet length average = 1
Accepted packet length average = 1
Total in-flight flits = 10189 (10189 measured)
latency change    = 0.0436293
throughput change = 0.00084897
Class 0:
Packet latency average = 63.8114
	minimum = 5
	maximum = 208
Network latency average = 59.1845
	minimum = 5
	maximum = 157
Slowest packet = 501291
Flit latency average = 59.2998
	minimum = 5
	maximum = 157
Slowest flit = 665253
Fragmentation average = 0
	minimum = 0
	maximum = 0
Injected packet rate average = 0.773478
	minimum = 0.752667 (at node 86)
	maximum = 0.791667 (at node 133)
Accepted packet rate average = 0.771974
	minimum = 0.726 (at node 179)
	maximum = 0.817333 (at node 113)
Injected flit rate average = 0.773478
	minimum = 0.752667 (at node 86)
	maximum = 0.791667 (at node 133)
Accepted flit rate average= 0.771974
	minimum = 0.726 (at node 179)
	maximum = 0.817333 (at node 113)
Injected packet length average = 1
Accepted packet length average = 1
Total in-flight flits = 10347 (10347 measured)
latency change    = 0.0336449
throughput change = 0.000442788
Draining all recorded packets ...
Draining remaining packets ...
Time taken is 6287 cycles
====== Overall Traffic Statistics ======
====== Traffic class 0 ======
Packet latency average = 64.2816 (1 samples)
	minimum = 5 (1 samples)
	maximum = 208 (1 samples)
Network latency average = 59.4591 (1 samples)
	minimum = 5 (1 samples)
	maximum = 157 (1 samples)
Flit latency average = 59.6471 (1 samples)
	minimum = 5 (1 samples)
	maximum = 157 (1 samples)
Fragmentation average = 0 (1 samples)
	minimum = 0 (1 samples)
	maximum = 0 (1 samples)
Injected packet rate average = 0.773478 (1 samples)
	minimum = 0.752667 (1 samples)
	maximum = 0.791667 (1 samples)
Accepted packet rate average = 0.771974 (1 samples)
	minimum = 0.726 (1 samples)
	maximum = 0.817333 (1 samples)
Injected flit rate average = 0.773478 (1 samples)
	minimum = 0.752667 (1 samples)
	maximum = 0.791667 (1 samples)
Accepted flit rate average = 0.771974 (1 samples)
	minimum = 0.726 (1 samples)
	maximum = 0.817333 (1 samples)
Injected packet size average = 1 (1 samples)
Accepted packet size average = 1 (1 samples)
Hops average = 2.66756 (1 samples)
Total run time 7.99054
