BEGIN Configuration File: ../../../../booksim2/src/examples/flatflyconfig
// $Id$

// Copyright (c) 2007-2015, Trustees of The Leland Stanford Junior University
// All rights reserved.
//
// Redistribution and use in source and binary forms, with or without
// modification, are permitted provided that the following conditions are met:
//
// Redistributions of source code must retain the above copyright notice, this
// list of conditions and the following disclaimer.
// Redistributions in binary form must reproduce the above copyright notice,
// this list of conditions and the following disclaimer in the documentation
// and/or other materials provided with the distribution.
//
// THIS SOFTWARE IS PROVIDED BY THE COPYRIGHT HOLDERS AND CONTRIBUTORS "AS IS"
// AND ANY EXPRESS OR IMPLIED WARRANTIES, INCLUDING, BUT NOT LIMITED TO, THE
// IMPLIED WARRANTIES OF MERCHANTABILITY AND FITNESS FOR A PARTICULAR PURPOSE
// ARE DISCLAIMED. IN NO EVENT SHALL THE COPYRIGHT OWNER OR CONTRIBUTORS BE
// LIABLE FOR ANY DIRECT, INDIRECT, INCIDENTAL, SPECIAL, EXEMPLARY, OR
// CONSEQUENTIAL DAMAGES (INCLUDING, BUT NOT LIMITED TO, PROCUREMENT OF
// SUBSTITUTE GOODS OR SERVICES; LOSS OF USE, DATA, OR PROFITS; OR BUSINESS
// INTERRUPTION) HOWEVER CAUSED AND ON ANY THEORY OF LIABILITY, WHETHER IN
// CONTRACT, STRICT LIABILITY, OR TORT (INCLUDING NEGLIGENCE OR OTHERWISE)
// ARISING IN ANY WAY OUT OF THE USE OF THIS SOFTWARE, EVEN IF ADVISED OF THE
// POSSIBILITY OF SUCH DAMAGE.

//A flattened butterfly configurate file with many tweaks from the
//default settings. 


// Flow control
// Total number of VCs must match the above assignments
num_vcs     = 2;
vc_buf_size = 16;

wait_for_tail_credit = 0;

//
// Router architectureq
//
vc_allocator = islip; 
sw_allocator = islip;
alloc_iters  = 3;

credit_delay   = 0;
routing_delay  = 1;
vc_alloc_delay = 1;
sw_alloc_delay = 1;
st_final_delay = 1;

input_speedup     = 1;
output_speedup    = 1;
internal_speedup  = 1.6;

//
// Traffic
//

warmup_periods = 3;

sample_period  = 1000;  

sim_count          = 1;

traffic       = uniform;


// Flatfly 
//
// #node = k^(n+1)
//
// x, y, specifies the arrangement of routers in x and y dim
// xr, yr specifiies the arayment of clients in a router
//
topology = flatfly;
subnets = 1;

c  = 6;
k  = 6;
n  = 2;

x  = 6;
y  = 6;
xr = 6;
yr = 1;

use_noc_latency = 0;

//
// Routing
//

routing_function = ran_min;

//1: batch mode, 0: injection mode
use_read_write = 0;

//for injection mode
packet_size = 1;
injection_rate = 0.1;

//for batch mode
read_request_size=1;
write_request_size=1;
read_reply_size=1;
write_reply_size=1;

read_request_begin_vc  = 0;
read_request_end_vc    = 3;
write_reply_begin_vc   = 4;
write_reply_end_vc     = 7;
read_reply_begin_vc    = 4;
read_reply_end_vc      = 7;
write_request_begin_vc = 0;
write_request_end_vc   = 3;

//latency: drains all packet, throughput:no drain?
sim_type = latency;

END Configuration File: ../../../../booksim2/src/examples/flatflyconfig
OVERRIDE Parameter: sim_type=latency
OVERRIDE Parameter: traffic=uniform
OVERRIDE Parameter: injection_rate={0.425}
 Flat Bufferfly 
 k = 6 n = 2 c = 6
 each switch - total radix =  16
 # of switches = 36
 # of channels = 360
 # of nodes ( size of network ) = 216
Class 0:
Packet latency average = 13.6694
	minimum = 5
	maximum = 31
Network latency average = 13.6694
	minimum = 5
	maximum = 31
Slowest packet = 11003
Flit latency average = 13.6694
	minimum = 5
	maximum = 31
Slowest flit = 11003
Fragmentation average = 0
	minimum = 0
	maximum = 0
Injected packet rate average = 0.424102
	minimum = 0.384 (at node 16)
	maximum = 0.466 (at node 82)
Accepted packet rate average = 0.418111
	minimum = 0.377 (at node 165)
	maximum = 0.476 (at node 34)
Injected flit rate average = 0.424102
	minimum = 0.384 (at node 16)
	maximum = 0.466 (at node 82)
Accepted flit rate average= 0.418111
	minimum = 0.377 (at node 165)
	maximum = 0.476 (at node 34)
Injected packet length average = 1
Accepted packet length average = 1
Total in-flight flits = 1294 (0 measured)
latency change    = 1
throughput change = 1
Class 0:
Packet latency average = 13.6639
	minimum = 5
	maximum = 31
Network latency average = 13.6639
	minimum = 5
	maximum = 31
Slowest packet = 11003
Flit latency average = 13.6639
	minimum = 5
	maximum = 31
Slowest flit = 11003
Fragmentation average = 0
	minimum = 0
	maximum = 0
Injected packet rate average = 0.424755
	minimum = 0.3985 (at node 99)
	maximum = 0.453 (at node 82)
Accepted packet rate average = 0.421743
	minimum = 0.385 (at node 30)
	maximum = 0.459 (at node 34)
Injected flit rate average = 0.424755
	minimum = 0.3985 (at node 99)
	maximum = 0.453 (at node 82)
Accepted flit rate average= 0.421743
	minimum = 0.385 (at node 30)
	maximum = 0.459 (at node 34)
Injected packet length average = 1
Accepted packet length average = 1
Total in-flight flits = 1301 (0 measured)
latency change    = 0.000407857
throughput change = 0.00861175
Class 0:
Packet latency average = 13.685
	minimum = 5
	maximum = 30
Network latency average = 13.685
	minimum = 5
	maximum = 30
Slowest packet = 228086
Flit latency average = 13.685
	minimum = 5
	maximum = 30
Slowest flit = 228086
Fragmentation average = 0
	minimum = 0
	maximum = 0
Injected packet rate average = 0.425088
	minimum = 0.377 (at node 210)
	maximum = 0.467 (at node 18)
Accepted packet rate average = 0.425171
	minimum = 0.362 (at node 96)
	maximum = 0.483 (at node 94)
Injected flit rate average = 0.425088
	minimum = 0.377 (at node 210)
	maximum = 0.467 (at node 18)
Accepted flit rate average= 0.425171
	minimum = 0.362 (at node 96)
	maximum = 0.483 (at node 94)
Injected packet length average = 1
Accepted packet length average = 1
Total in-flight flits = 1283 (0 measured)
latency change    = 0.00154752
throughput change = 0.0080632
Warmed up ...Time used is 3000 cycles
Class 0:
Packet latency average = 13.6646
	minimum = 5
	maximum = 28
Network latency average = 13.6646
	minimum = 5
	maximum = 28
Slowest packet = 325361
Flit latency average = 13.675
	minimum = 5
	maximum = 28
Slowest flit = 325361
Fragmentation average = 0
	minimum = 0
	maximum = 0
Injected packet rate average = 0.424847
	minimum = 0.378 (at node 39)
	maximum = 0.469 (at node 75)
Accepted packet rate average = 0.425079
	minimum = 0.36 (at node 167)
	maximum = 0.478 (at node 83)
Injected flit rate average = 0.424847
	minimum = 0.378 (at node 39)
	maximum = 0.469 (at node 75)
Accepted flit rate average= 0.425079
	minimum = 0.36 (at node 167)
	maximum = 0.478 (at node 83)
Injected packet length average = 1
Accepted packet length average = 1
Total in-flight flits = 1233 (1233 measured)
latency change    = 0.00149331
throughput change = 0.000217825
Class 0:
Packet latency average = 13.6733
	minimum = 5
	maximum = 28
Network latency average = 13.6733
	minimum = 5
	maximum = 28
Slowest packet = 325361
Flit latency average = 13.6784
	minimum = 5
	maximum = 28
Slowest flit = 325361
Fragmentation average = 0
	minimum = 0
	maximum = 0
Injected packet rate average = 0.425028
	minimum = 0.395 (at node 33)
	maximum = 0.4545 (at node 165)
Accepted packet rate average = 0.424977
	minimum = 0.3635 (at node 167)
	maximum = 0.4655 (at node 199)
Injected flit rate average = 0.425028
	minimum = 0.395 (at node 33)
	maximum = 0.4545 (at node 165)
Accepted flit rate average= 0.424977
	minimum = 0.3635 (at node 167)
	maximum = 0.4655 (at node 199)
Injected packet length average = 1
Accepted packet length average = 1
Total in-flight flits = 1305 (1305 measured)
latency change    = 0.000630441
throughput change = 0.000239664
Class 0:
Packet latency average = 13.6656
	minimum = 5
	maximum = 30
Network latency average = 13.6656
	minimum = 5
	maximum = 30
Slowest packet = 515828
Flit latency average = 13.6691
	minimum = 5
	maximum = 30
Slowest flit = 515828
Fragmentation average = 0
	minimum = 0
	maximum = 0
Injected packet rate average = 0.424568
	minimum = 0.399333 (at node 33)
	maximum = 0.445333 (at node 12)
Accepted packet rate average = 0.424588
	minimum = 0.375667 (at node 167)
	maximum = 0.457333 (at node 183)
Injected flit rate average = 0.424568
	minimum = 0.399333 (at node 33)
	maximum = 0.445333 (at node 12)
Accepted flit rate average= 0.424588
	minimum = 0.375667 (at node 167)
	maximum = 0.457333 (at node 183)
Injected packet length average = 1
Accepted packet length average = 1
Total in-flight flits = 1270 (1270 measured)
latency change    = 0.000559741
throughput change = 0.000915921
Draining all recorded packets ...
Draining remaining packets ...
Time taken is 6042 cycles
====== Overall Traffic Statistics ======
====== Traffic class 0 ======
Packet latency average = 13.6674 (1 samples)
	minimum = 5 (1 samples)
	maximum = 30 (1 samples)
Network latency average = 13.6674 (1 samples)
	minimum = 5 (1 samples)
	maximum = 30 (1 samples)
Flit latency average = 13.6706 (1 samples)
	minimum = 5 (1 samples)
	maximum = 30 (1 samples)
Fragmentation average = 0 (1 samples)
	minimum = 0 (1 samples)
	maximum = 0 (1 samples)
Injected packet rate average = 0.424568 (1 samples)
	minimum = 0.399333 (1 samples)
	maximum = 0.445333 (1 samples)
Accepted packet rate average = 0.424588 (1 samples)
	minimum = 0.375667 (1 samples)
	maximum = 0.457333 (1 samples)
Injected flit rate average = 0.424568 (1 samples)
	minimum = 0.399333 (1 samples)
	maximum = 0.445333 (1 samples)
Accepted flit rate average = 0.424588 (1 samples)
	minimum = 0.375667 (1 samples)
	maximum = 0.457333 (1 samples)
Injected packet size average = 1 (1 samples)
Accepted packet size average = 1 (1 samples)
Hops average = 2.6658 (1 samples)
Total run time 4.54789
