BEGIN Configuration File: ../../../../booksim2/src/examples/flatflyconfig
// $Id$

// Copyright (c) 2007-2015, Trustees of The Leland Stanford Junior University
// All rights reserved.
//
// Redistribution and use in source and binary forms, with or without
// modification, are permitted provided that the following conditions are met:
//
// Redistributions of source code must retain the above copyright notice, this
// list of conditions and the following disclaimer.
// Redistributions in binary form must reproduce the above copyright notice,
// this list of conditions and the following disclaimer in the documentation
// and/or other materials provided with the distribution.
//
// THIS SOFTWARE IS PROVIDED BY THE COPYRIGHT HOLDERS AND CONTRIBUTORS "AS IS"
// AND ANY EXPRESS OR IMPLIED WARRANTIES, INCLUDING, BUT NOT LIMITED TO, THE
// IMPLIED WARRANTIES OF MERCHANTABILITY AND FITNESS FOR A PARTICULAR PURPOSE
// ARE DISCLAIMED. IN NO EVENT SHALL THE COPYRIGHT OWNER OR CONTRIBUTORS BE
// LIABLE FOR ANY DIRECT, INDIRECT, INCIDENTAL, SPECIAL, EXEMPLARY, OR
// CONSEQUENTIAL DAMAGES (INCLUDING, BUT NOT LIMITED TO, PROCUREMENT OF
// SUBSTITUTE GOODS OR SERVICES; LOSS OF USE, DATA, OR PROFITS; OR BUSINESS
// INTERRUPTION) HOWEVER CAUSED AND ON ANY THEORY OF LIABILITY, WHETHER IN
// CONTRACT, STRICT LIABILITY, OR TORT (INCLUDING NEGLIGENCE OR OTHERWISE)
// ARISING IN ANY WAY OUT OF THE USE OF THIS SOFTWARE, EVEN IF ADVISED OF THE
// POSSIBILITY OF SUCH DAMAGE.

//A flattened butterfly configurate file with many tweaks from the
//default settings. 


// Flow control
// Total number of VCs must match the above assignments
num_vcs     = 2;
vc_buf_size = 16;

wait_for_tail_credit = 0;

//
// Router architectureq
//
vc_allocator = islip; 
sw_allocator = islip;
alloc_iters  = 3;

credit_delay   = 0;
routing_delay  = 1;
vc_alloc_delay = 1;
sw_alloc_delay = 1;
st_final_delay = 1;

input_speedup     = 1;
output_speedup    = 1;
internal_speedup  = 1.6;

//
// Traffic
//

warmup_periods = 3;

sample_period  = 1000;  

sim_count          = 1;

traffic       = uniform;


// Flatfly 
//
// #node = k^(n+1)
//
// x, y, specifies the arrangement of routers in x and y dim
// xr, yr specifiies the arayment of clients in a router
//
topology = flatfly;
subnets = 1;

c  = 6;
k  = 6;
n  = 2;

x  = 6;
y  = 6;
xr = 6;
yr = 1;

use_noc_latency = 0;

//
// Routing
//

routing_function = ran_min;

//1: batch mode, 0: injection mode
use_read_write = 0;

//for injection mode
packet_size = 1;
injection_rate = 0.1;

//for batch mode
read_request_size=1;
write_request_size=1;
read_reply_size=1;
write_reply_size=1;

read_request_begin_vc  = 0;
read_request_end_vc    = 3;
write_reply_begin_vc   = 4;
write_reply_end_vc     = 7;
read_reply_begin_vc    = 4;
read_reply_end_vc      = 7;
write_request_begin_vc = 0;
write_request_end_vc   = 3;

//latency: drains all packet, throughput:no drain?
sim_type = latency;

END Configuration File: ../../../../booksim2/src/examples/flatflyconfig
OVERRIDE Parameter: sim_type=latency
OVERRIDE Parameter: traffic=uniform
OVERRIDE Parameter: injection_rate={0.05}
 Flat Bufferfly 
 k = 6 n = 2 c = 6
 each switch - total radix =  16
 # of switches = 36
 # of channels = 360
 # of nodes ( size of network ) = 216
Class 0:
Packet latency average = 12.2368
	minimum = 5
	maximum = 16
Network latency average = 12.2368
	minimum = 5
	maximum = 16
Slowest packet = 316
Flit latency average = 12.2368
	minimum = 5
	maximum = 16
Slowest flit = 316
Fragmentation average = 0
	minimum = 0
	maximum = 0
Injected packet rate average = 0.0500926
	minimum = 0.033 (at node 37)
	maximum = 0.067 (at node 27)
Accepted packet rate average = 0.0493889
	minimum = 0.033 (at node 24)
	maximum = 0.075 (at node 61)
Injected flit rate average = 0.0500926
	minimum = 0.033 (at node 37)
	maximum = 0.067 (at node 27)
Accepted flit rate average= 0.0493889
	minimum = 0.033 (at node 24)
	maximum = 0.075 (at node 61)
Injected packet length average = 1
Accepted packet length average = 1
Total in-flight flits = 152 (0 measured)
latency change    = 1
throughput change = 1
Class 0:
Packet latency average = 12.2493
	minimum = 5
	maximum = 16
Network latency average = 12.2493
	minimum = 5
	maximum = 16
Slowest packet = 316
Flit latency average = 12.2493
	minimum = 5
	maximum = 16
Slowest flit = 316
Fragmentation average = 0
	minimum = 0
	maximum = 0
Injected packet rate average = 0.0499699
	minimum = 0.037 (at node 45)
	maximum = 0.0625 (at node 109)
Accepted packet rate average = 0.0496597
	minimum = 0.035 (at node 24)
	maximum = 0.0655 (at node 205)
Injected flit rate average = 0.0499699
	minimum = 0.037 (at node 45)
	maximum = 0.0625 (at node 109)
Accepted flit rate average= 0.0496597
	minimum = 0.035 (at node 24)
	maximum = 0.0655 (at node 205)
Injected packet length average = 1
Accepted packet length average = 1
Total in-flight flits = 134 (0 measured)
latency change    = 0.00102098
throughput change = 0.00545378
Class 0:
Packet latency average = 12.2451
	minimum = 5
	maximum = 17
Network latency average = 12.2451
	minimum = 5
	maximum = 17
Slowest packet = 26312
Flit latency average = 12.2451
	minimum = 5
	maximum = 17
Slowest flit = 26312
Fragmentation average = 0
	minimum = 0
	maximum = 0
Injected packet rate average = 0.0499676
	minimum = 0.032 (at node 128)
	maximum = 0.073 (at node 177)
Accepted packet rate average = 0.0498657
	minimum = 0.032 (at node 93)
	maximum = 0.074 (at node 26)
Injected flit rate average = 0.0499676
	minimum = 0.032 (at node 128)
	maximum = 0.073 (at node 177)
Accepted flit rate average= 0.0498657
	minimum = 0.032 (at node 93)
	maximum = 0.074 (at node 26)
Injected packet length average = 1
Accepted packet length average = 1
Total in-flight flits = 156 (0 measured)
latency change    = 0.000341896
throughput change = 0.00413146
Warmed up ...Time used is 3000 cycles
Class 0:
Packet latency average = 12.2654
	minimum = 5
	maximum = 17
Network latency average = 12.2654
	minimum = 5
	maximum = 17
Slowest packet = 33549
Flit latency average = 12.267
	minimum = 5
	maximum = 17
Slowest flit = 33549
Fragmentation average = 0
	minimum = 0
	maximum = 0
Injected packet rate average = 0.0504537
	minimum = 0.032 (at node 163)
	maximum = 0.077 (at node 70)
Accepted packet rate average = 0.0506019
	minimum = 0.028 (at node 114)
	maximum = 0.064 (at node 182)
Injected flit rate average = 0.0504537
	minimum = 0.032 (at node 163)
	maximum = 0.077 (at node 70)
Accepted flit rate average= 0.0506019
	minimum = 0.028 (at node 114)
	maximum = 0.064 (at node 182)
Injected packet length average = 1
Accepted packet length average = 1
Total in-flight flits = 124 (124 measured)
latency change    = 0.00165168
throughput change = 0.0145471
Class 0:
Packet latency average = 12.2657
	minimum = 5
	maximum = 17
Network latency average = 12.2657
	minimum = 5
	maximum = 17
Slowest packet = 33549
Flit latency average = 12.2665
	minimum = 5
	maximum = 17
Slowest flit = 33549
Fragmentation average = 0
	minimum = 0
	maximum = 0
Injected packet rate average = 0.0500926
	minimum = 0.039 (at node 74)
	maximum = 0.064 (at node 211)
Accepted packet rate average = 0.0501319
	minimum = 0.0335 (at node 114)
	maximum = 0.064 (at node 34)
Injected flit rate average = 0.0500926
	minimum = 0.039 (at node 74)
	maximum = 0.064 (at node 211)
Accepted flit rate average= 0.0501319
	minimum = 0.0335 (at node 114)
	maximum = 0.064 (at node 34)
Injected packet length average = 1
Accepted packet length average = 1
Total in-flight flits = 139 (139 measured)
latency change    = 2.45407e-05
throughput change = 0.00937341
Class 0:
Packet latency average = 12.259
	minimum = 5
	maximum = 17
Network latency average = 12.259
	minimum = 5
	maximum = 17
Slowest packet = 33549
Flit latency average = 12.2596
	minimum = 5
	maximum = 17
Slowest flit = 33549
Fragmentation average = 0
	minimum = 0
	maximum = 0
Injected packet rate average = 0.0500895
	minimum = 0.0406667 (at node 213)
	maximum = 0.0606667 (at node 70)
Accepted packet rate average = 0.0501265
	minimum = 0.039 (at node 114)
	maximum = 0.061 (at node 140)
Injected flit rate average = 0.0500895
	minimum = 0.0406667 (at node 213)
	maximum = 0.0606667 (at node 70)
Accepted flit rate average= 0.0501265
	minimum = 0.039 (at node 114)
	maximum = 0.061 (at node 140)
Injected packet length average = 1
Accepted packet length average = 1
Total in-flight flits = 132 (132 measured)
latency change    = 0.000542014
throughput change = 0.000107752
Draining all recorded packets ...
Draining remaining packets ...
Time taken is 6029 cycles
====== Overall Traffic Statistics ======
====== Traffic class 0 ======
Packet latency average = 12.2599 (1 samples)
	minimum = 5 (1 samples)
	maximum = 17 (1 samples)
Network latency average = 12.2599 (1 samples)
	minimum = 5 (1 samples)
	maximum = 17 (1 samples)
Flit latency average = 12.2605 (1 samples)
	minimum = 5 (1 samples)
	maximum = 17 (1 samples)
Fragmentation average = 0 (1 samples)
	minimum = 0 (1 samples)
	maximum = 0 (1 samples)
Injected packet rate average = 0.0500895 (1 samples)
	minimum = 0.0406667 (1 samples)
	maximum = 0.0606667 (1 samples)
Accepted packet rate average = 0.0501265 (1 samples)
	minimum = 0.039 (1 samples)
	maximum = 0.061 (1 samples)
Injected flit rate average = 0.0500895 (1 samples)
	minimum = 0.0406667 (1 samples)
	maximum = 0.0606667 (1 samples)
Accepted flit rate average = 0.0501265 (1 samples)
	minimum = 0.039 (1 samples)
	maximum = 0.061 (1 samples)
Injected packet size average = 1 (1 samples)
Accepted packet size average = 1 (1 samples)
Hops average = 2.66896 (1 samples)
Total run time 0.803969
