BEGIN Configuration File: ../../../../booksim2/src/examples/flatflyconfig
// $Id$

// Copyright (c) 2007-2015, Trustees of The Leland Stanford Junior University
// All rights reserved.
//
// Redistribution and use in source and binary forms, with or without
// modification, are permitted provided that the following conditions are met:
//
// Redistributions of source code must retain the above copyright notice, this
// list of conditions and the following disclaimer.
// Redistributions in binary form must reproduce the above copyright notice,
// this list of conditions and the following disclaimer in the documentation
// and/or other materials provided with the distribution.
//
// THIS SOFTWARE IS PROVIDED BY THE COPYRIGHT HOLDERS AND CONTRIBUTORS "AS IS"
// AND ANY EXPRESS OR IMPLIED WARRANTIES, INCLUDING, BUT NOT LIMITED TO, THE
// IMPLIED WARRANTIES OF MERCHANTABILITY AND FITNESS FOR A PARTICULAR PURPOSE
// ARE DISCLAIMED. IN NO EVENT SHALL THE COPYRIGHT OWNER OR CONTRIBUTORS BE
// LIABLE FOR ANY DIRECT, INDIRECT, INCIDENTAL, SPECIAL, EXEMPLARY, OR
// CONSEQUENTIAL DAMAGES (INCLUDING, BUT NOT LIMITED TO, PROCUREMENT OF
// SUBSTITUTE GOODS OR SERVICES; LOSS OF USE, DATA, OR PROFITS; OR BUSINESS
// INTERRUPTION) HOWEVER CAUSED AND ON ANY THEORY OF LIABILITY, WHETHER IN
// CONTRACT, STRICT LIABILITY, OR TORT (INCLUDING NEGLIGENCE OR OTHERWISE)
// ARISING IN ANY WAY OUT OF THE USE OF THIS SOFTWARE, EVEN IF ADVISED OF THE
// POSSIBILITY OF SUCH DAMAGE.

//A flattened butterfly configurate file with many tweaks from the
//default settings. 


// Flow control
// Total number of VCs must match the above assignments
num_vcs     = 2;
vc_buf_size = 16;

wait_for_tail_credit = 0;

//
// Router architectureq
//
vc_allocator = islip; 
sw_allocator = islip;
alloc_iters  = 3;

credit_delay   = 0;
routing_delay  = 1;
vc_alloc_delay = 1;
sw_alloc_delay = 1;
st_final_delay = 1;

input_speedup     = 1;
output_speedup    = 1;
internal_speedup  = 1.6;

//
// Traffic
//

warmup_periods = 3;

sample_period  = 1000;  

sim_count          = 1;

traffic       = uniform;


// Flatfly 
//
// #node = k^(n+1)
//
// x, y, specifies the arrangement of routers in x and y dim
// xr, yr specifiies the arayment of clients in a router
//
topology = flatfly;
subnets = 1;

c  = 6;
k  = 6;
n  = 2;

x  = 6;
y  = 6;
xr = 6;
yr = 1;

use_noc_latency = 0;

//
// Routing
//

routing_function = ran_min;

//1: batch mode, 0: injection mode
use_read_write = 0;

//for injection mode
packet_size = 1;
injection_rate = 0.1;

//for batch mode
read_request_size=1;
write_request_size=1;
read_reply_size=1;
write_reply_size=1;

read_request_begin_vc  = 0;
read_request_end_vc    = 3;
write_reply_begin_vc   = 4;
write_reply_end_vc     = 7;
read_reply_begin_vc    = 4;
read_reply_end_vc      = 7;
write_request_begin_vc = 0;
write_request_end_vc   = 3;

//latency: drains all packet, throughput:no drain?
sim_type = latency;

END Configuration File: ../../../../booksim2/src/examples/flatflyconfig
OVERRIDE Parameter: sim_type=latency
OVERRIDE Parameter: traffic=uniform
OVERRIDE Parameter: injection_rate={0.375}
 Flat Bufferfly 
 k = 6 n = 2 c = 6
 each switch - total radix =  16
 # of switches = 36
 # of channels = 360
 # of nodes ( size of network ) = 216
Class 0:
Packet latency average = 13.3511
	minimum = 5
	maximum = 25
Network latency average = 13.3511
	minimum = 5
	maximum = 25
Slowest packet = 54859
Flit latency average = 13.3511
	minimum = 5
	maximum = 25
Slowest flit = 54859
Fragmentation average = 0
	minimum = 0
	maximum = 0
Injected packet rate average = 0.374181
	minimum = 0.337 (at node 16)
	maximum = 0.418 (at node 82)
Accepted packet rate average = 0.369065
	minimum = 0.327 (at node 165)
	maximum = 0.423 (at node 140)
Injected flit rate average = 0.374181
	minimum = 0.337 (at node 16)
	maximum = 0.418 (at node 82)
Accepted flit rate average= 0.369065
	minimum = 0.327 (at node 165)
	maximum = 0.423 (at node 140)
Injected packet length average = 1
Accepted packet length average = 1
Total in-flight flits = 1105 (0 measured)
latency change    = 1
throughput change = 1
Class 0:
Packet latency average = 13.3612
	minimum = 5
	maximum = 26
Network latency average = 13.3612
	minimum = 5
	maximum = 26
Slowest packet = 95839
Flit latency average = 13.3612
	minimum = 5
	maximum = 26
Slowest flit = 95839
Fragmentation average = 0
	minimum = 0
	maximum = 0
Injected packet rate average = 0.374174
	minimum = 0.343 (at node 19)
	maximum = 0.407 (at node 82)
Accepted packet rate average = 0.371558
	minimum = 0.332 (at node 30)
	maximum = 0.4115 (at node 34)
Injected flit rate average = 0.374174
	minimum = 0.343 (at node 19)
	maximum = 0.407 (at node 82)
Accepted flit rate average= 0.371558
	minimum = 0.332 (at node 30)
	maximum = 0.4115 (at node 34)
Injected packet length average = 1
Accepted packet length average = 1
Total in-flight flits = 1130 (0 measured)
latency change    = 0.000755293
throughput change = 0.00670974
Class 0:
Packet latency average = 13.3668
	minimum = 5
	maximum = 26
Network latency average = 13.3668
	minimum = 5
	maximum = 26
Slowest packet = 169313
Flit latency average = 13.3668
	minimum = 5
	maximum = 26
Slowest flit = 169313
Fragmentation average = 0
	minimum = 0
	maximum = 0
Injected packet rate average = 0.375472
	minimum = 0.327 (at node 128)
	maximum = 0.423 (at node 134)
Accepted packet rate average = 0.375481
	minimum = 0.32 (at node 95)
	maximum = 0.428 (at node 4)
Injected flit rate average = 0.375472
	minimum = 0.327 (at node 128)
	maximum = 0.423 (at node 134)
Accepted flit rate average= 0.375481
	minimum = 0.32 (at node 95)
	maximum = 0.428 (at node 4)
Injected packet length average = 1
Accepted packet length average = 1
Total in-flight flits = 1128 (0 measured)
latency change    = 0.000416815
throughput change = 0.0104495
Warmed up ...Time used is 3000 cycles
Class 0:
Packet latency average = 13.3578
	minimum = 5
	maximum = 27
Network latency average = 13.3578
	minimum = 5
	maximum = 27
Slowest packet = 311543
Flit latency average = 13.365
	minimum = 5
	maximum = 27
Slowest flit = 311543
Fragmentation average = 0
	minimum = 0
	maximum = 0
Injected packet rate average = 0.37388
	minimum = 0.332 (at node 33)
	maximum = 0.42 (at node 60)
Accepted packet rate average = 0.374199
	minimum = 0.329 (at node 42)
	maximum = 0.416 (at node 133)
Injected flit rate average = 0.37388
	minimum = 0.332 (at node 33)
	maximum = 0.42 (at node 60)
Accepted flit rate average= 0.374199
	minimum = 0.329 (at node 42)
	maximum = 0.416 (at node 133)
Injected packet length average = 1
Accepted packet length average = 1
Total in-flight flits = 1059 (1059 measured)
latency change    = 0.000675993
throughput change = 0.00342707
Class 0:
Packet latency average = 13.3613
	minimum = 5
	maximum = 27
Network latency average = 13.3613
	minimum = 5
	maximum = 27
Slowest packet = 311543
Flit latency average = 13.3649
	minimum = 5
	maximum = 27
Slowest flit = 311543
Fragmentation average = 0
	minimum = 0
	maximum = 0
Injected packet rate average = 0.374634
	minimum = 0.3425 (at node 33)
	maximum = 0.4055 (at node 29)
Accepted packet rate average = 0.374699
	minimum = 0.3395 (at node 167)
	maximum = 0.4075 (at node 60)
Injected flit rate average = 0.374634
	minimum = 0.3425 (at node 33)
	maximum = 0.4055 (at node 29)
Accepted flit rate average= 0.374699
	minimum = 0.3395 (at node 167)
	maximum = 0.4075 (at node 60)
Injected packet length average = 1
Accepted packet length average = 1
Total in-flight flits = 1100 (1100 measured)
latency change    = 0.000262685
throughput change = 0.0013344
Class 0:
Packet latency average = 13.3607
	minimum = 5
	maximum = 27
Network latency average = 13.3607
	minimum = 5
	maximum = 27
Slowest packet = 311543
Flit latency average = 13.3631
	minimum = 5
	maximum = 27
Slowest flit = 311543
Fragmentation average = 0
	minimum = 0
	maximum = 0
Injected packet rate average = 0.374221
	minimum = 0.346333 (at node 33)
	maximum = 0.395333 (at node 129)
Accepted packet rate average = 0.374295
	minimum = 0.338667 (at node 167)
	maximum = 0.399667 (at node 183)
Injected flit rate average = 0.374221
	minimum = 0.346333 (at node 33)
	maximum = 0.395333 (at node 129)
Accepted flit rate average= 0.374295
	minimum = 0.338667 (at node 167)
	maximum = 0.399667 (at node 183)
Injected packet length average = 1
Accepted packet length average = 1
Total in-flight flits = 1080 (1080 measured)
latency change    = 4.39015e-05
throughput change = 0.00108022
Draining all recorded packets ...
Draining remaining packets ...
Time taken is 6039 cycles
====== Overall Traffic Statistics ======
====== Traffic class 0 ======
Packet latency average = 13.3628 (1 samples)
	minimum = 5 (1 samples)
	maximum = 27 (1 samples)
Network latency average = 13.3628 (1 samples)
	minimum = 5 (1 samples)
	maximum = 27 (1 samples)
Flit latency average = 13.3648 (1 samples)
	minimum = 5 (1 samples)
	maximum = 27 (1 samples)
Fragmentation average = 0 (1 samples)
	minimum = 0 (1 samples)
	maximum = 0 (1 samples)
Injected packet rate average = 0.374221 (1 samples)
	minimum = 0.346333 (1 samples)
	maximum = 0.395333 (1 samples)
Accepted packet rate average = 0.374295 (1 samples)
	minimum = 0.338667 (1 samples)
	maximum = 0.399667 (1 samples)
Injected flit rate average = 0.374221 (1 samples)
	minimum = 0.346333 (1 samples)
	maximum = 0.395333 (1 samples)
Accepted flit rate average = 0.374295 (1 samples)
	minimum = 0.338667 (1 samples)
	maximum = 0.399667 (1 samples)
Injected packet size average = 1 (1 samples)
Accepted packet size average = 1 (1 samples)
Hops average = 2.66638 (1 samples)
Total run time 4.07231
