BEGIN Configuration File: ../../../../booksim2/src/examples/flatflyconfig
// $Id$

// Copyright (c) 2007-2015, Trustees of The Leland Stanford Junior University
// All rights reserved.
//
// Redistribution and use in source and binary forms, with or without
// modification, are permitted provided that the following conditions are met:
//
// Redistributions of source code must retain the above copyright notice, this
// list of conditions and the following disclaimer.
// Redistributions in binary form must reproduce the above copyright notice,
// this list of conditions and the following disclaimer in the documentation
// and/or other materials provided with the distribution.
//
// THIS SOFTWARE IS PROVIDED BY THE COPYRIGHT HOLDERS AND CONTRIBUTORS "AS IS"
// AND ANY EXPRESS OR IMPLIED WARRANTIES, INCLUDING, BUT NOT LIMITED TO, THE
// IMPLIED WARRANTIES OF MERCHANTABILITY AND FITNESS FOR A PARTICULAR PURPOSE
// ARE DISCLAIMED. IN NO EVENT SHALL THE COPYRIGHT OWNER OR CONTRIBUTORS BE
// LIABLE FOR ANY DIRECT, INDIRECT, INCIDENTAL, SPECIAL, EXEMPLARY, OR
// CONSEQUENTIAL DAMAGES (INCLUDING, BUT NOT LIMITED TO, PROCUREMENT OF
// SUBSTITUTE GOODS OR SERVICES; LOSS OF USE, DATA, OR PROFITS; OR BUSINESS
// INTERRUPTION) HOWEVER CAUSED AND ON ANY THEORY OF LIABILITY, WHETHER IN
// CONTRACT, STRICT LIABILITY, OR TORT (INCLUDING NEGLIGENCE OR OTHERWISE)
// ARISING IN ANY WAY OUT OF THE USE OF THIS SOFTWARE, EVEN IF ADVISED OF THE
// POSSIBILITY OF SUCH DAMAGE.

//A flattened butterfly configurate file with many tweaks from the
//default settings. 


// Flow control
// Total number of VCs must match the above assignments
num_vcs     = 2;
vc_buf_size = 16;

wait_for_tail_credit = 0;

//
// Router architectureq
//
vc_allocator = islip; 
sw_allocator = islip;
alloc_iters  = 3;

credit_delay   = 0;
routing_delay  = 1;
vc_alloc_delay = 1;
sw_alloc_delay = 1;
st_final_delay = 1;

input_speedup     = 1;
output_speedup    = 1;
internal_speedup  = 1.6;

//
// Traffic
//

warmup_periods = 3;

sample_period  = 1000;  

sim_count          = 1;

traffic       = uniform;


// Flatfly 
//
// #node = k^(n+1)
//
// x, y, specifies the arrangement of routers in x and y dim
// xr, yr specifiies the arayment of clients in a router
//
topology = flatfly;
subnets = 1;

c  = 6;
k  = 6;
n  = 2;

x  = 6;
y  = 6;
xr = 6;
yr = 1;

use_noc_latency = 0;

//
// Routing
//

routing_function = ran_min;

//1: batch mode, 0: injection mode
use_read_write = 0;

//for injection mode
packet_size = 1;
injection_rate = 0.1;

//for batch mode
read_request_size=1;
write_request_size=1;
read_reply_size=1;
write_reply_size=1;

read_request_begin_vc  = 0;
read_request_end_vc    = 3;
write_reply_begin_vc   = 4;
write_reply_end_vc     = 7;
read_reply_begin_vc    = 4;
read_reply_end_vc      = 7;
write_request_begin_vc = 0;
write_request_end_vc   = 3;

//latency: drains all packet, throughput:no drain?
sim_type = latency;

END Configuration File: ../../../../booksim2/src/examples/flatflyconfig
OVERRIDE Parameter: sim_type=latency
OVERRIDE Parameter: traffic=uniform
OVERRIDE Parameter: injection_rate={0.9}
 Flat Bufferfly 
 k = 6 n = 2 c = 6
 each switch - total radix =  16
 # of switches = 36
 # of channels = 360
 # of nodes ( size of network ) = 216
Class 0:
Packet latency average = 87.7951
	minimum = 5
	maximum = 250
Network latency average = 63.9052
	minimum = 5
	maximum = 157
Slowest packet = 47581
Flit latency average = 63.9052
	minimum = 5
	maximum = 157
Slowest flit = 117108
Fragmentation average = 0
	minimum = 0
	maximum = 0
Injected packet rate average = 0.818282
	minimum = 0.771 (at node 210)
	maximum = 0.86 (at node 63)
Accepted packet rate average = 0.758889
	minimum = 0.686 (at node 165)
	maximum = 0.843 (at node 34)
Injected flit rate average = 0.818282
	minimum = 0.771 (at node 210)
	maximum = 0.86 (at node 63)
Accepted flit rate average= 0.758889
	minimum = 0.686 (at node 165)
	maximum = 0.843 (at node 34)
Injected packet length average = 1
Accepted packet length average = 1
Total in-flight flits = 12910 (0 measured)
latency change    = 1
throughput change = 1
Class 0:
Packet latency average = 157.524
	minimum = 5
	maximum = 422
Network latency average = 70.4046
	minimum = 5
	maximum = 158
Slowest packet = 47581
Flit latency average = 70.4046
	minimum = 5
	maximum = 158
Slowest flit = 311769
Fragmentation average = 0
	minimum = 0
	maximum = 0
Injected packet rate average = 0.796243
	minimum = 0.7675 (at node 78)
	maximum = 0.8285 (at node 63)
Accepted packet rate average = 0.766308
	minimum = 0.724 (at node 95)
	maximum = 0.831 (at node 34)
Injected flit rate average = 0.796243
	minimum = 0.7675 (at node 78)
	maximum = 0.8285 (at node 63)
Accepted flit rate average= 0.766308
	minimum = 0.724 (at node 95)
	maximum = 0.831 (at node 34)
Injected packet length average = 1
Accepted packet length average = 1
Total in-flight flits = 13006 (0 measured)
latency change    = 0.442655
throughput change = 0.00968146
Class 0:
Packet latency average = 366.673
	minimum = 187
	maximum = 579
Network latency average = 77.0087
	minimum = 31
	maximum = 161
Slowest packet = 331166
Flit latency average = 77.0087
	minimum = 31
	maximum = 161
Slowest flit = 439297
Fragmentation average = 0
	minimum = 0
	maximum = 0
Injected packet rate average = 0.774519
	minimum = 0.735 (at node 70)
	maximum = 0.805 (at node 10)
Accepted packet rate average = 0.774171
	minimum = 0.692 (at node 167)
	maximum = 0.839 (at node 5)
Injected flit rate average = 0.774519
	minimum = 0.735 (at node 70)
	maximum = 0.805 (at node 10)
Accepted flit rate average= 0.774171
	minimum = 0.692 (at node 167)
	maximum = 0.839 (at node 5)
Injected packet length average = 1
Accepted packet length average = 1
Total in-flight flits = 13077 (0 measured)
latency change    = 0.570397
throughput change = 0.0101572
Warmed up ...Time used is 3000 cycles
Class 0:
Packet latency average = 511.842
	minimum = 335
	maximum = 741
Network latency average = 76.3412
	minimum = 31
	maximum = 170
Slowest packet = 511524
Flit latency average = 76.7891
	minimum = 31
	maximum = 170
Slowest flit = 554075
Fragmentation average = 0
	minimum = 0
	maximum = 0
Injected packet rate average = 0.774208
	minimum = 0.72 (at node 131)
	maximum = 0.81 (at node 143)
Accepted packet rate average = 0.774269
	minimum = 0.685 (at node 179)
	maximum = 0.85 (at node 2)
Injected flit rate average = 0.774208
	minimum = 0.72 (at node 131)
	maximum = 0.81 (at node 143)
Accepted flit rate average= 0.774269
	minimum = 0.685 (at node 179)
	maximum = 0.85 (at node 2)
Injected packet length average = 1
Accepted packet length average = 1
Total in-flight flits = 13057 (13057 measured)
latency change    = 0.28362
throughput change = 0.000125567
Average latency for class 0 exceeded 500 cycles. Aborting simulation.
Too many sample periods needed to converge
Simulation unstable, ending ...
Total run time 5.08703
