BEGIN Configuration File: ../../../../booksim2/src/examples/flatflyconfig
// $Id$

// Copyright (c) 2007-2015, Trustees of The Leland Stanford Junior University
// All rights reserved.
//
// Redistribution and use in source and binary forms, with or without
// modification, are permitted provided that the following conditions are met:
//
// Redistributions of source code must retain the above copyright notice, this
// list of conditions and the following disclaimer.
// Redistributions in binary form must reproduce the above copyright notice,
// this list of conditions and the following disclaimer in the documentation
// and/or other materials provided with the distribution.
//
// THIS SOFTWARE IS PROVIDED BY THE COPYRIGHT HOLDERS AND CONTRIBUTORS "AS IS"
// AND ANY EXPRESS OR IMPLIED WARRANTIES, INCLUDING, BUT NOT LIMITED TO, THE
// IMPLIED WARRANTIES OF MERCHANTABILITY AND FITNESS FOR A PARTICULAR PURPOSE
// ARE DISCLAIMED. IN NO EVENT SHALL THE COPYRIGHT OWNER OR CONTRIBUTORS BE
// LIABLE FOR ANY DIRECT, INDIRECT, INCIDENTAL, SPECIAL, EXEMPLARY, OR
// CONSEQUENTIAL DAMAGES (INCLUDING, BUT NOT LIMITED TO, PROCUREMENT OF
// SUBSTITUTE GOODS OR SERVICES; LOSS OF USE, DATA, OR PROFITS; OR BUSINESS
// INTERRUPTION) HOWEVER CAUSED AND ON ANY THEORY OF LIABILITY, WHETHER IN
// CONTRACT, STRICT LIABILITY, OR TORT (INCLUDING NEGLIGENCE OR OTHERWISE)
// ARISING IN ANY WAY OUT OF THE USE OF THIS SOFTWARE, EVEN IF ADVISED OF THE
// POSSIBILITY OF SUCH DAMAGE.

//A flattened butterfly configurate file with many tweaks from the
//default settings. 


// Flow control
// Total number of VCs must match the above assignments
num_vcs     = 2;
vc_buf_size = 16;

wait_for_tail_credit = 0;

//
// Router architectureq
//
vc_allocator = islip; 
sw_allocator = islip;
alloc_iters  = 3;

credit_delay   = 0;
routing_delay  = 1;
vc_alloc_delay = 1;
sw_alloc_delay = 1;
st_final_delay = 1;

input_speedup     = 1;
output_speedup    = 1;
internal_speedup  = 1.6;

//
// Traffic
//

warmup_periods = 3;

sample_period  = 1000;  

sim_count          = 1;

traffic       = uniform;


// Flatfly 
//
// #node = k^(n+1)
//
// x, y, specifies the arrangement of routers in x and y dim
// xr, yr specifiies the arayment of clients in a router
//
topology = flatfly;
subnets = 1;

c  = 6;
k  = 6;
n  = 2;

x  = 6;
y  = 6;
xr = 6;
yr = 1;

use_noc_latency = 0;

//
// Routing
//

routing_function = ran_min;

//1: batch mode, 0: injection mode
use_read_write = 0;

//for injection mode
packet_size = 1;
injection_rate = 0.1;

//for batch mode
read_request_size=1;
write_request_size=1;
read_reply_size=1;
write_reply_size=1;

read_request_begin_vc  = 0;
read_request_end_vc    = 3;
write_reply_begin_vc   = 4;
write_reply_end_vc     = 7;
read_reply_begin_vc    = 4;
read_reply_end_vc      = 7;
write_request_begin_vc = 0;
write_request_end_vc   = 3;

//latency: drains all packet, throughput:no drain?
sim_type = latency;

END Configuration File: ../../../../booksim2/src/examples/flatflyconfig
OVERRIDE Parameter: sim_type=latency
OVERRIDE Parameter: traffic=uniform
OVERRIDE Parameter: injection_rate={0.175}
 Flat Bufferfly 
 k = 6 n = 2 c = 6
 each switch - total radix =  16
 # of switches = 36
 # of channels = 360
 # of nodes ( size of network ) = 216
Class 0:
Packet latency average = 12.5606
	minimum = 5
	maximum = 21
Network latency average = 12.5606
	minimum = 5
	maximum = 21
Slowest packet = 23624
Flit latency average = 12.5606
	minimum = 5
	maximum = 21
Slowest flit = 23624
Fragmentation average = 0
	minimum = 0
	maximum = 0
Injected packet rate average = 0.174074
	minimum = 0.143 (at node 91)
	maximum = 0.217 (at node 82)
Accepted packet rate average = 0.171653
	minimum = 0.142 (at node 100)
	maximum = 0.204 (at node 34)
Injected flit rate average = 0.174074
	minimum = 0.143 (at node 91)
	maximum = 0.217 (at node 82)
Accepted flit rate average= 0.171653
	minimum = 0.142 (at node 100)
	maximum = 0.204 (at node 34)
Injected packet length average = 1
Accepted packet length average = 1
Total in-flight flits = 523 (0 measured)
latency change    = 1
throughput change = 1
Class 0:
Packet latency average = 12.5657
	minimum = 5
	maximum = 21
Network latency average = 12.5657
	minimum = 5
	maximum = 21
Slowest packet = 23624
Flit latency average = 12.5657
	minimum = 5
	maximum = 21
Slowest flit = 23624
Fragmentation average = 0
	minimum = 0
	maximum = 0
Injected packet rate average = 0.174231
	minimum = 0.1445 (at node 91)
	maximum = 0.2055 (at node 82)
Accepted packet rate average = 0.17315
	minimum = 0.152 (at node 165)
	maximum = 0.1985 (at node 140)
Injected flit rate average = 0.174231
	minimum = 0.1445 (at node 91)
	maximum = 0.2055 (at node 82)
Accepted flit rate average= 0.17315
	minimum = 0.152 (at node 165)
	maximum = 0.1985 (at node 140)
Injected packet length average = 1
Accepted packet length average = 1
Total in-flight flits = 467 (0 measured)
latency change    = 0.000400312
throughput change = 0.00864962
Class 0:
Packet latency average = 12.585
	minimum = 5
	maximum = 20
Network latency average = 12.585
	minimum = 5
	maximum = 20
Slowest packet = 89522
Flit latency average = 12.585
	minimum = 5
	maximum = 20
Slowest flit = 89522
Fragmentation average = 0
	minimum = 0
	maximum = 0
Injected packet rate average = 0.175542
	minimum = 0.147 (at node 128)
	maximum = 0.209 (at node 177)
Accepted packet rate average = 0.175292
	minimum = 0.144 (at node 35)
	maximum = 0.219 (at node 158)
Injected flit rate average = 0.175542
	minimum = 0.147 (at node 128)
	maximum = 0.209 (at node 177)
Accepted flit rate average= 0.175292
	minimum = 0.144 (at node 35)
	maximum = 0.219 (at node 158)
Injected packet length average = 1
Accepted packet length average = 1
Total in-flight flits = 521 (0 measured)
latency change    = 0.00153592
throughput change = 0.0122151
Warmed up ...Time used is 3000 cycles
Class 0:
Packet latency average = 12.5486
	minimum = 5
	maximum = 22
Network latency average = 12.5486
	minimum = 5
	maximum = 22
Slowest packet = 133054
Flit latency average = 12.5534
	minimum = 5
	maximum = 22
Slowest flit = 133054
Fragmentation average = 0
	minimum = 0
	maximum = 0
Injected packet rate average = 0.174273
	minimum = 0.136 (at node 170)
	maximum = 0.21 (at node 70)
Accepted packet rate average = 0.174551
	minimum = 0.138 (at node 106)
	maximum = 0.208 (at node 200)
Injected flit rate average = 0.174273
	minimum = 0.136 (at node 170)
	maximum = 0.21 (at node 70)
Accepted flit rate average= 0.174551
	minimum = 0.138 (at node 106)
	maximum = 0.208 (at node 200)
Injected packet length average = 1
Accepted packet length average = 1
Total in-flight flits = 461 (461 measured)
latency change    = 0.00290112
throughput change = 0.00424369
Class 0:
Packet latency average = 12.5562
	minimum = 5
	maximum = 22
Network latency average = 12.5562
	minimum = 5
	maximum = 22
Slowest packet = 133054
Flit latency average = 12.5585
	minimum = 5
	maximum = 22
Slowest flit = 133054
Fragmentation average = 0
	minimum = 0
	maximum = 0
Injected packet rate average = 0.174475
	minimum = 0.1545 (at node 98)
	maximum = 0.2075 (at node 124)
Accepted packet rate average = 0.174539
	minimum = 0.151 (at node 106)
	maximum = 0.2005 (at node 156)
Injected flit rate average = 0.174475
	minimum = 0.1545 (at node 98)
	maximum = 0.2075 (at node 124)
Accepted flit rate average= 0.174539
	minimum = 0.151 (at node 106)
	maximum = 0.2005 (at node 156)
Injected packet length average = 1
Accepted packet length average = 1
Total in-flight flits = 493 (493 measured)
latency change    = 0.00060404
throughput change = 6.63121e-05
Class 0:
Packet latency average = 12.5709
	minimum = 5
	maximum = 22
Network latency average = 12.5709
	minimum = 5
	maximum = 22
Slowest packet = 133054
Flit latency average = 12.5724
	minimum = 5
	maximum = 22
Slowest flit = 133054
Fragmentation average = 0
	minimum = 0
	maximum = 0
Injected packet rate average = 0.174549
	minimum = 0.154333 (at node 58)
	maximum = 0.192333 (at node 124)
Accepted packet rate average = 0.174585
	minimum = 0.156667 (at node 106)
	maximum = 0.194667 (at node 94)
Injected flit rate average = 0.174549
	minimum = 0.154333 (at node 58)
	maximum = 0.192333 (at node 124)
Accepted flit rate average= 0.174585
	minimum = 0.156667 (at node 106)
	maximum = 0.194667 (at node 94)
Injected packet length average = 1
Accepted packet length average = 1
Total in-flight flits = 498 (498 measured)
latency change    = 0.00116855
throughput change = 0.00026076
Draining all recorded packets ...
Draining remaining packets ...
Time taken is 6034 cycles
====== Overall Traffic Statistics ======
====== Traffic class 0 ======
Packet latency average = 12.5736 (1 samples)
	minimum = 5 (1 samples)
	maximum = 22 (1 samples)
Network latency average = 12.5736 (1 samples)
	minimum = 5 (1 samples)
	maximum = 22 (1 samples)
Flit latency average = 12.5753 (1 samples)
	minimum = 5 (1 samples)
	maximum = 22 (1 samples)
Fragmentation average = 0 (1 samples)
	minimum = 0 (1 samples)
	maximum = 0 (1 samples)
Injected packet rate average = 0.174549 (1 samples)
	minimum = 0.154333 (1 samples)
	maximum = 0.192333 (1 samples)
Accepted packet rate average = 0.174585 (1 samples)
	minimum = 0.156667 (1 samples)
	maximum = 0.194667 (1 samples)
Injected flit rate average = 0.174549 (1 samples)
	minimum = 0.154333 (1 samples)
	maximum = 0.192333 (1 samples)
Accepted flit rate average = 0.174585 (1 samples)
	minimum = 0.156667 (1 samples)
	maximum = 0.194667 (1 samples)
Injected packet size average = 1 (1 samples)
Accepted packet size average = 1 (1 samples)
Hops average = 2.66619 (1 samples)
Total run time 2.06501
