BEGIN Configuration File: ../../../../booksim2/src/examples/flatflyconfig
// $Id$

// Copyright (c) 2007-2015, Trustees of The Leland Stanford Junior University
// All rights reserved.
//
// Redistribution and use in source and binary forms, with or without
// modification, are permitted provided that the following conditions are met:
//
// Redistributions of source code must retain the above copyright notice, this
// list of conditions and the following disclaimer.
// Redistributions in binary form must reproduce the above copyright notice,
// this list of conditions and the following disclaimer in the documentation
// and/or other materials provided with the distribution.
//
// THIS SOFTWARE IS PROVIDED BY THE COPYRIGHT HOLDERS AND CONTRIBUTORS "AS IS"
// AND ANY EXPRESS OR IMPLIED WARRANTIES, INCLUDING, BUT NOT LIMITED TO, THE
// IMPLIED WARRANTIES OF MERCHANTABILITY AND FITNESS FOR A PARTICULAR PURPOSE
// ARE DISCLAIMED. IN NO EVENT SHALL THE COPYRIGHT OWNER OR CONTRIBUTORS BE
// LIABLE FOR ANY DIRECT, INDIRECT, INCIDENTAL, SPECIAL, EXEMPLARY, OR
// CONSEQUENTIAL DAMAGES (INCLUDING, BUT NOT LIMITED TO, PROCUREMENT OF
// SUBSTITUTE GOODS OR SERVICES; LOSS OF USE, DATA, OR PROFITS; OR BUSINESS
// INTERRUPTION) HOWEVER CAUSED AND ON ANY THEORY OF LIABILITY, WHETHER IN
// CONTRACT, STRICT LIABILITY, OR TORT (INCLUDING NEGLIGENCE OR OTHERWISE)
// ARISING IN ANY WAY OUT OF THE USE OF THIS SOFTWARE, EVEN IF ADVISED OF THE
// POSSIBILITY OF SUCH DAMAGE.

//A flattened butterfly configurate file with many tweaks from the
//default settings. 


// Flow control
// Total number of VCs must match the above assignments
num_vcs     = 2;
vc_buf_size = 16;

wait_for_tail_credit = 0;

//
// Router architectureq
//
vc_allocator = islip; 
sw_allocator = islip;
alloc_iters  = 3;

credit_delay   = 0;
routing_delay  = 1;
vc_alloc_delay = 1;
sw_alloc_delay = 1;
st_final_delay = 1;

input_speedup     = 1;
output_speedup    = 1;
internal_speedup  = 1.6;

//
// Traffic
//

warmup_periods = 3;

sample_period  = 1000;  

sim_count          = 1;

traffic       = uniform;


// Flatfly 
//
// #node = k^(n+1)
//
// x, y, specifies the arrangement of routers in x and y dim
// xr, yr specifiies the arayment of clients in a router
//
topology = flatfly;
subnets = 1;

c  = 6;
k  = 6;
n  = 2;

x  = 6;
y  = 6;
xr = 6;
yr = 1;

use_noc_latency = 0;

//
// Routing
//

routing_function = ran_min;

//1: batch mode, 0: injection mode
use_read_write = 0;

//for injection mode
packet_size = 1;
injection_rate = 0.1;

//for batch mode
read_request_size=1;
write_request_size=1;
read_reply_size=1;
write_reply_size=1;

read_request_begin_vc  = 0;
read_request_end_vc    = 3;
write_reply_begin_vc   = 4;
write_reply_end_vc     = 7;
read_reply_begin_vc    = 4;
read_reply_end_vc      = 7;
write_request_begin_vc = 0;
write_request_end_vc   = 3;

//latency: drains all packet, throughput:no drain?
sim_type = latency;

END Configuration File: ../../../../booksim2/src/examples/flatflyconfig
OVERRIDE Parameter: sim_type=latency
OVERRIDE Parameter: traffic=uniform
OVERRIDE Parameter: injection_rate={0.15}
 Flat Bufferfly 
 k = 6 n = 2 c = 6
 each switch - total radix =  16
 # of switches = 36
 # of channels = 360
 # of nodes ( size of network ) = 216
Class 0:
Packet latency average = 12.4977
	minimum = 5
	maximum = 18
Network latency average = 12.4977
	minimum = 5
	maximum = 18
Slowest packet = 6479
Flit latency average = 12.4977
	minimum = 5
	maximum = 18
Slowest flit = 6479
Fragmentation average = 0
	minimum = 0
	maximum = 0
Injected packet rate average = 0.149435
	minimum = 0.119 (at node 67)
	maximum = 0.186 (at node 128)
Accepted packet rate average = 0.147407
	minimum = 0.117 (at node 24)
	maximum = 0.178 (at node 143)
Injected flit rate average = 0.149435
	minimum = 0.119 (at node 67)
	maximum = 0.186 (at node 128)
Accepted flit rate average= 0.147407
	minimum = 0.117 (at node 24)
	maximum = 0.178 (at node 143)
Injected packet length average = 1
Accepted packet length average = 1
Total in-flight flits = 438 (0 measured)
latency change    = 1
throughput change = 1
Class 0:
Packet latency average = 12.5082
	minimum = 5
	maximum = 20
Network latency average = 12.5082
	minimum = 5
	maximum = 20
Slowest packet = 39157
Flit latency average = 12.5082
	minimum = 5
	maximum = 20
Slowest flit = 39157
Fragmentation average = 0
	minimum = 0
	maximum = 0
Injected packet rate average = 0.14941
	minimum = 0.121 (at node 1)
	maximum = 0.1735 (at node 128)
Accepted packet rate average = 0.14847
	minimum = 0.126 (at node 153)
	maximum = 0.175 (at node 34)
Injected flit rate average = 0.14941
	minimum = 0.121 (at node 1)
	maximum = 0.1735 (at node 128)
Accepted flit rate average= 0.14847
	minimum = 0.126 (at node 153)
	maximum = 0.175 (at node 34)
Injected packet length average = 1
Accepted packet length average = 1
Total in-flight flits = 406 (0 measured)
latency change    = 0.000839564
throughput change = 0.00715633
Class 0:
Packet latency average = 12.5077
	minimum = 5
	maximum = 20
Network latency average = 12.5077
	minimum = 5
	maximum = 20
Slowest packet = 78270
Flit latency average = 12.5077
	minimum = 5
	maximum = 20
Slowest flit = 78270
Fragmentation average = 0
	minimum = 0
	maximum = 0
Injected packet rate average = 0.15037
	minimum = 0.12 (at node 210)
	maximum = 0.186 (at node 177)
Accepted packet rate average = 0.150139
	minimum = 0.121 (at node 152)
	maximum = 0.178 (at node 1)
Injected flit rate average = 0.15037
	minimum = 0.12 (at node 210)
	maximum = 0.186 (at node 177)
Accepted flit rate average= 0.150139
	minimum = 0.121 (at node 152)
	maximum = 0.178 (at node 1)
Injected packet length average = 1
Accepted packet length average = 1
Total in-flight flits = 456 (0 measured)
latency change    = 4.24266e-05
throughput change = 0.0111163
Warmed up ...Time used is 3000 cycles
Class 0:
Packet latency average = 12.4979
	minimum = 5
	maximum = 19
Network latency average = 12.4979
	minimum = 5
	maximum = 19
Slowest packet = 116272
Flit latency average = 12.5013
	minimum = 5
	maximum = 19
Slowest flit = 116272
Fragmentation average = 0
	minimum = 0
	maximum = 0
Injected packet rate average = 0.149708
	minimum = 0.115 (at node 170)
	maximum = 0.187 (at node 70)
Accepted packet rate average = 0.14994
	minimum = 0.122 (at node 106)
	maximum = 0.181 (at node 158)
Injected flit rate average = 0.149708
	minimum = 0.115 (at node 170)
	maximum = 0.187 (at node 70)
Accepted flit rate average= 0.14994
	minimum = 0.122 (at node 106)
	maximum = 0.181 (at node 158)
Injected packet length average = 1
Accepted packet length average = 1
Total in-flight flits = 406 (406 measured)
latency change    = 0.000783493
throughput change = 0.00132769
Class 0:
Packet latency average = 12.5034
	minimum = 5
	maximum = 19
Network latency average = 12.5034
	minimum = 5
	maximum = 19
Slowest packet = 116272
Flit latency average = 12.5051
	minimum = 5
	maximum = 19
Slowest flit = 116272
Fragmentation average = 0
	minimum = 0
	maximum = 0
Injected packet rate average = 0.15003
	minimum = 0.1295 (at node 215)
	maximum = 0.1815 (at node 124)
Accepted packet rate average = 0.150157
	minimum = 0.1255 (at node 106)
	maximum = 0.173 (at node 156)
Injected flit rate average = 0.15003
	minimum = 0.1295 (at node 215)
	maximum = 0.1815 (at node 124)
Accepted flit rate average= 0.150157
	minimum = 0.1255 (at node 106)
	maximum = 0.173 (at node 156)
Injected packet length average = 1
Accepted packet length average = 1
Total in-flight flits = 401 (401 measured)
latency change    = 0.000438511
throughput change = 0.0014491
Class 0:
Packet latency average = 12.5044
	minimum = 5
	maximum = 19
Network latency average = 12.5044
	minimum = 5
	maximum = 19
Slowest packet = 116272
Flit latency average = 12.5055
	minimum = 5
	maximum = 19
Slowest flit = 116272
Fragmentation average = 0
	minimum = 0
	maximum = 0
Injected packet rate average = 0.150165
	minimum = 0.132 (at node 58)
	maximum = 0.169333 (at node 70)
Accepted packet rate average = 0.150227
	minimum = 0.129667 (at node 106)
	maximum = 0.169 (at node 156)
Injected flit rate average = 0.150165
	minimum = 0.132 (at node 58)
	maximum = 0.169333 (at node 70)
Accepted flit rate average= 0.150227
	minimum = 0.129667 (at node 106)
	maximum = 0.169 (at node 156)
Injected packet length average = 1
Accepted packet length average = 1
Total in-flight flits = 416 (416 measured)
latency change    = 8.26042e-05
throughput change = 0.000462264
Draining all recorded packets ...
Draining remaining packets ...
Time taken is 6034 cycles
====== Overall Traffic Statistics ======
====== Traffic class 0 ======
Packet latency average = 12.5062 (1 samples)
	minimum = 5 (1 samples)
	maximum = 19 (1 samples)
Network latency average = 12.5062 (1 samples)
	minimum = 5 (1 samples)
	maximum = 19 (1 samples)
Flit latency average = 12.5073 (1 samples)
	minimum = 5 (1 samples)
	maximum = 19 (1 samples)
Fragmentation average = 0 (1 samples)
	minimum = 0 (1 samples)
	maximum = 0 (1 samples)
Injected packet rate average = 0.150165 (1 samples)
	minimum = 0.132 (1 samples)
	maximum = 0.169333 (1 samples)
Accepted packet rate average = 0.150227 (1 samples)
	minimum = 0.129667 (1 samples)
	maximum = 0.169 (1 samples)
Injected flit rate average = 0.150165 (1 samples)
	minimum = 0.132 (1 samples)
	maximum = 0.169333 (1 samples)
Accepted flit rate average = 0.150227 (1 samples)
	minimum = 0.129667 (1 samples)
	maximum = 0.169 (1 samples)
Injected packet size average = 1 (1 samples)
Accepted packet size average = 1 (1 samples)
Hops average = 2.66717 (1 samples)
Total run time 1.81647
