BEGIN Configuration File: ../../../../booksim2/src/examples/flatflyconfig
// $Id$

// Copyright (c) 2007-2015, Trustees of The Leland Stanford Junior University
// All rights reserved.
//
// Redistribution and use in source and binary forms, with or without
// modification, are permitted provided that the following conditions are met:
//
// Redistributions of source code must retain the above copyright notice, this
// list of conditions and the following disclaimer.
// Redistributions in binary form must reproduce the above copyright notice,
// this list of conditions and the following disclaimer in the documentation
// and/or other materials provided with the distribution.
//
// THIS SOFTWARE IS PROVIDED BY THE COPYRIGHT HOLDERS AND CONTRIBUTORS "AS IS"
// AND ANY EXPRESS OR IMPLIED WARRANTIES, INCLUDING, BUT NOT LIMITED TO, THE
// IMPLIED WARRANTIES OF MERCHANTABILITY AND FITNESS FOR A PARTICULAR PURPOSE
// ARE DISCLAIMED. IN NO EVENT SHALL THE COPYRIGHT OWNER OR CONTRIBUTORS BE
// LIABLE FOR ANY DIRECT, INDIRECT, INCIDENTAL, SPECIAL, EXEMPLARY, OR
// CONSEQUENTIAL DAMAGES (INCLUDING, BUT NOT LIMITED TO, PROCUREMENT OF
// SUBSTITUTE GOODS OR SERVICES; LOSS OF USE, DATA, OR PROFITS; OR BUSINESS
// INTERRUPTION) HOWEVER CAUSED AND ON ANY THEORY OF LIABILITY, WHETHER IN
// CONTRACT, STRICT LIABILITY, OR TORT (INCLUDING NEGLIGENCE OR OTHERWISE)
// ARISING IN ANY WAY OUT OF THE USE OF THIS SOFTWARE, EVEN IF ADVISED OF THE
// POSSIBILITY OF SUCH DAMAGE.

//A flattened butterfly configurate file with many tweaks from the
//default settings. 


// Flow control
// Total number of VCs must match the above assignments
num_vcs     = 2;
vc_buf_size = 16;

wait_for_tail_credit = 0;

//
// Router architectureq
//
vc_allocator = islip; 
sw_allocator = islip;
alloc_iters  = 3;

credit_delay   = 0;
routing_delay  = 1;
vc_alloc_delay = 1;
sw_alloc_delay = 1;
st_final_delay = 1;

input_speedup     = 1;
output_speedup    = 1;
internal_speedup  = 1.6;

//
// Traffic
//

warmup_periods = 3;

sample_period  = 1000;  

sim_count          = 1;

traffic       = uniform;


// Flatfly 
//
// #node = k^(n+1)
//
// x, y, specifies the arrangement of routers in x and y dim
// xr, yr specifiies the arayment of clients in a router
//
topology = flatfly;
subnets = 1;

c  = 6;
k  = 6;
n  = 2;

x  = 6;
y  = 6;
xr = 6;
yr = 1;

use_noc_latency = 0;

//
// Routing
//

routing_function = ran_min;

//1: batch mode, 0: injection mode
use_read_write = 0;

//for injection mode
packet_size = 1;
injection_rate = 0.1;

//for batch mode
read_request_size=1;
write_request_size=1;
read_reply_size=1;
write_reply_size=1;

read_request_begin_vc  = 0;
read_request_end_vc    = 3;
write_reply_begin_vc   = 4;
write_reply_end_vc     = 7;
read_reply_begin_vc    = 4;
read_reply_end_vc      = 7;
write_request_begin_vc = 0;
write_request_end_vc   = 3;

//latency: drains all packet, throughput:no drain?
sim_type = latency;

END Configuration File: ../../../../booksim2/src/examples/flatflyconfig
OVERRIDE Parameter: sim_type=latency
OVERRIDE Parameter: traffic=uniform
OVERRIDE Parameter: injection_rate={1}
 Flat Bufferfly 
 k = 6 n = 2 c = 6
 each switch - total radix =  16
 # of switches = 36
 # of channels = 360
 # of nodes ( size of network ) = 216
Class 0:
Packet latency average = 127.666
	minimum = 5
	maximum = 313
Network latency average = 67.8874
	minimum = 5
	maximum = 169
Slowest packet = 28056
Flit latency average = 67.8874
	minimum = 5
	maximum = 169
Slowest flit = 123036
Fragmentation average = 0
	minimum = 0
	maximum = 0
Injected packet rate average = 0.821185
	minimum = 0.774 (at node 141)
	maximum = 0.858 (at node 107)
Accepted packet rate average = 0.761477
	minimum = 0.688 (at node 30)
	maximum = 0.843 (at node 34)
Injected flit rate average = 0.821185
	minimum = 0.774 (at node 141)
	maximum = 0.858 (at node 107)
Accepted flit rate average= 0.761477
	minimum = 0.688 (at node 30)
	maximum = 0.843 (at node 34)
Injected packet length average = 1
Accepted packet length average = 1
Total in-flight flits = 12970 (0 measured)
latency change    = 1
throughput change = 1
Class 0:
Packet latency average = 240.868
	minimum = 5
	maximum = 548
Network latency average = 72.3396
	minimum = 5
	maximum = 175
Slowest packet = 28056
Flit latency average = 72.3396
	minimum = 5
	maximum = 175
Slowest flit = 194293
Fragmentation average = 0
	minimum = 0
	maximum = 0
Injected packet rate average = 0.797238
	minimum = 0.7645 (at node 20)
	maximum = 0.8275 (at node 60)
Accepted packet rate average = 0.767454
	minimum = 0.726 (at node 95)
	maximum = 0.831 (at node 34)
Injected flit rate average = 0.797238
	minimum = 0.7645 (at node 20)
	maximum = 0.8275 (at node 60)
Accepted flit rate average= 0.767454
	minimum = 0.726 (at node 95)
	maximum = 0.831 (at node 34)
Injected packet length average = 1
Accepted packet length average = 1
Total in-flight flits = 12945 (0 measured)
latency change    = 0.469977
throughput change = 0.0077879
Class 0:
Packet latency average = 575.651
	minimum = 380
	maximum = 792
Network latency average = 76.6385
	minimum = 31
	maximum = 158
Slowest packet = 330304
Flit latency average = 76.6385
	minimum = 31
	maximum = 158
Slowest flit = 453061
Fragmentation average = 0
	minimum = 0
	maximum = 0
Injected packet rate average = 0.777736
	minimum = 0.721 (at node 160)
	maximum = 0.807 (at node 3)
Accepted packet rate average = 0.777361
	minimum = 0.693 (at node 167)
	maximum = 0.848 (at node 5)
Injected flit rate average = 0.777736
	minimum = 0.721 (at node 160)
	maximum = 0.807 (at node 3)
Accepted flit rate average= 0.777361
	minimum = 0.693 (at node 167)
	maximum = 0.848 (at node 5)
Injected packet length average = 1
Accepted packet length average = 1
Total in-flight flits = 13018 (0 measured)
latency change    = 0.581572
throughput change = 0.0127449
Average latency for class 0 exceeded 500 cycles. Aborting simulation.
Too many sample periods needed to converge
Simulation unstable, ending ...
Total run time 3.73376
