BEGIN Configuration File: ../../../../booksim2/src/examples/flatflyconfig
// $Id$

// Copyright (c) 2007-2015, Trustees of The Leland Stanford Junior University
// All rights reserved.
//
// Redistribution and use in source and binary forms, with or without
// modification, are permitted provided that the following conditions are met:
//
// Redistributions of source code must retain the above copyright notice, this
// list of conditions and the following disclaimer.
// Redistributions in binary form must reproduce the above copyright notice,
// this list of conditions and the following disclaimer in the documentation
// and/or other materials provided with the distribution.
//
// THIS SOFTWARE IS PROVIDED BY THE COPYRIGHT HOLDERS AND CONTRIBUTORS "AS IS"
// AND ANY EXPRESS OR IMPLIED WARRANTIES, INCLUDING, BUT NOT LIMITED TO, THE
// IMPLIED WARRANTIES OF MERCHANTABILITY AND FITNESS FOR A PARTICULAR PURPOSE
// ARE DISCLAIMED. IN NO EVENT SHALL THE COPYRIGHT OWNER OR CONTRIBUTORS BE
// LIABLE FOR ANY DIRECT, INDIRECT, INCIDENTAL, SPECIAL, EXEMPLARY, OR
// CONSEQUENTIAL DAMAGES (INCLUDING, BUT NOT LIMITED TO, PROCUREMENT OF
// SUBSTITUTE GOODS OR SERVICES; LOSS OF USE, DATA, OR PROFITS; OR BUSINESS
// INTERRUPTION) HOWEVER CAUSED AND ON ANY THEORY OF LIABILITY, WHETHER IN
// CONTRACT, STRICT LIABILITY, OR TORT (INCLUDING NEGLIGENCE OR OTHERWISE)
// ARISING IN ANY WAY OUT OF THE USE OF THIS SOFTWARE, EVEN IF ADVISED OF THE
// POSSIBILITY OF SUCH DAMAGE.

//A flattened butterfly configurate file with many tweaks from the
//default settings. 


// Flow control
// Total number of VCs must match the above assignments
num_vcs     = 2;
vc_buf_size = 16;

wait_for_tail_credit = 0;

//
// Router architectureq
//
vc_allocator = islip; 
sw_allocator = islip;
alloc_iters  = 3;

credit_delay   = 0;
routing_delay  = 1;
vc_alloc_delay = 1;
sw_alloc_delay = 1;
st_final_delay = 1;

input_speedup     = 1;
output_speedup    = 1;
internal_speedup  = 1.6;

//
// Traffic
//

warmup_periods = 3;

sample_period  = 1000;  

sim_count          = 1;

traffic       = uniform;


// Flatfly 
//
// #node = k^(n+1)
//
// x, y, specifies the arrangement of routers in x and y dim
// xr, yr specifiies the arayment of clients in a router
//
topology = flatfly;
subnets = 1;

c  = 6;
k  = 6;
n  = 2;

x  = 6;
y  = 6;
xr = 6;
yr = 1;

use_noc_latency = 0;

//
// Routing
//

routing_function = ran_min;

//1: batch mode, 0: injection mode
use_read_write = 0;

//for injection mode
packet_size = 1;
injection_rate = 0.1;

//for batch mode
read_request_size=1;
write_request_size=1;
read_reply_size=1;
write_reply_size=1;

read_request_begin_vc  = 0;
read_request_end_vc    = 3;
write_reply_begin_vc   = 4;
write_reply_end_vc     = 7;
read_reply_begin_vc    = 4;
read_reply_end_vc      = 7;
write_request_begin_vc = 0;
write_request_end_vc   = 3;

//latency: drains all packet, throughput:no drain?
sim_type = latency;

END Configuration File: ../../../../booksim2/src/examples/flatflyconfig
OVERRIDE Parameter: sim_type=latency
OVERRIDE Parameter: traffic=uniform
OVERRIDE Parameter: injection_rate={0.525}
 Flat Bufferfly 
 k = 6 n = 2 c = 6
 each switch - total radix =  16
 # of switches = 36
 # of channels = 360
 # of nodes ( size of network ) = 216
Class 0:
Packet latency average = 14.5922
	minimum = 5
	maximum = 41
Network latency average = 14.5922
	minimum = 5
	maximum = 41
Slowest packet = 8129
Flit latency average = 14.5922
	minimum = 5
	maximum = 41
Slowest flit = 8129
Fragmentation average = 0
	minimum = 0
	maximum = 0
Injected packet rate average = 0.524875
	minimum = 0.486 (at node 99)
	maximum = 0.563 (at node 82)
Accepted packet rate average = 0.517171
	minimum = 0.467 (at node 30)
	maximum = 0.579 (at node 34)
Injected flit rate average = 0.524875
	minimum = 0.486 (at node 99)
	maximum = 0.563 (at node 82)
Accepted flit rate average= 0.517171
	minimum = 0.467 (at node 30)
	maximum = 0.579 (at node 34)
Injected packet length average = 1
Accepted packet length average = 1
Total in-flight flits = 1664 (0 measured)
latency change    = 1
throughput change = 1
Class 0:
Packet latency average = 14.6148
	minimum = 5
	maximum = 41
Network latency average = 14.6148
	minimum = 5
	maximum = 41
Slowest packet = 8129
Flit latency average = 14.6148
	minimum = 5
	maximum = 41
Slowest flit = 8129
Fragmentation average = 0
	minimum = 0
	maximum = 0
Injected packet rate average = 0.525062
	minimum = 0.4915 (at node 99)
	maximum = 0.5515 (at node 82)
Accepted packet rate average = 0.521194
	minimum = 0.485 (at node 8)
	maximum = 0.566 (at node 34)
Injected flit rate average = 0.525062
	minimum = 0.4915 (at node 99)
	maximum = 0.5515 (at node 82)
Accepted flit rate average= 0.521194
	minimum = 0.485 (at node 8)
	maximum = 0.566 (at node 34)
Injected packet length average = 1
Accepted packet length average = 1
Total in-flight flits = 1671 (0 measured)
latency change    = 0.00155009
throughput change = 0.00771909
Class 0:
Packet latency average = 14.5781
	minimum = 5
	maximum = 34
Network latency average = 14.5781
	minimum = 5
	maximum = 34
Slowest packet = 272581
Flit latency average = 14.5781
	minimum = 5
	maximum = 34
Slowest flit = 272581
Fragmentation average = 0
	minimum = 0
	maximum = 0
Injected packet rate average = 0.525278
	minimum = 0.475 (at node 210)
	maximum = 0.571 (at node 168)
Accepted packet rate average = 0.525333
	minimum = 0.472 (at node 196)
	maximum = 0.58 (at node 87)
Injected flit rate average = 0.525278
	minimum = 0.475 (at node 210)
	maximum = 0.571 (at node 168)
Accepted flit rate average= 0.525333
	minimum = 0.472 (at node 196)
	maximum = 0.58 (at node 87)
Injected packet length average = 1
Accepted packet length average = 1
Total in-flight flits = 1659 (0 measured)
latency change    = 0.00251944
throughput change = 0.0078786
Warmed up ...Time used is 3000 cycles
Class 0:
Packet latency average = 14.606
	minimum = 5
	maximum = 33
Network latency average = 14.606
	minimum = 5
	maximum = 33
Slowest packet = 343685
Flit latency average = 14.6116
	minimum = 5
	maximum = 33
Slowest flit = 343685
Fragmentation average = 0
	minimum = 0
	maximum = 0
Injected packet rate average = 0.525838
	minimum = 0.477 (at node 116)
	maximum = 0.578 (at node 75)
Accepted packet rate average = 0.525713
	minimum = 0.455 (at node 167)
	maximum = 0.591 (at node 70)
Injected flit rate average = 0.525838
	minimum = 0.477 (at node 116)
	maximum = 0.578 (at node 75)
Accepted flit rate average= 0.525713
	minimum = 0.455 (at node 167)
	maximum = 0.591 (at node 70)
Injected packet length average = 1
Accepted packet length average = 1
Total in-flight flits = 1686 (1686 measured)
latency change    = 0.00190823
throughput change = 0.000722123
Class 0:
Packet latency average = 14.6227
	minimum = 5
	maximum = 37
Network latency average = 14.6227
	minimum = 5
	maximum = 37
Slowest packet = 496132
Flit latency average = 14.6254
	minimum = 5
	maximum = 37
Slowest flit = 496132
Fragmentation average = 0
	minimum = 0
	maximum = 0
Injected packet rate average = 0.525505
	minimum = 0.4935 (at node 135)
	maximum = 0.5575 (at node 122)
Accepted packet rate average = 0.525481
	minimum = 0.473 (at node 144)
	maximum = 0.5635 (at node 92)
Injected flit rate average = 0.525505
	minimum = 0.4935 (at node 135)
	maximum = 0.5575 (at node 122)
Accepted flit rate average= 0.525481
	minimum = 0.473 (at node 144)
	maximum = 0.5635 (at node 92)
Injected packet length average = 1
Accepted packet length average = 1
Total in-flight flits = 1669 (1669 measured)
latency change    = 0.00114356
throughput change = 0.000440513
Class 0:
Packet latency average = 14.6012
	minimum = 5
	maximum = 37
Network latency average = 14.6012
	minimum = 5
	maximum = 37
Slowest packet = 496132
Flit latency average = 14.6031
	minimum = 5
	maximum = 37
Slowest flit = 496132
Fragmentation average = 0
	minimum = 0
	maximum = 0
Injected packet rate average = 0.524747
	minimum = 0.498333 (at node 135)
	maximum = 0.549 (at node 60)
Accepted packet rate average = 0.524764
	minimum = 0.476667 (at node 179)
	maximum = 0.555667 (at node 175)
Injected flit rate average = 0.524747
	minimum = 0.498333 (at node 135)
	maximum = 0.549 (at node 60)
Accepted flit rate average= 0.524764
	minimum = 0.476667 (at node 179)
	maximum = 0.555667 (at node 175)
Injected packet length average = 1
Accepted packet length average = 1
Total in-flight flits = 1648 (1648 measured)
latency change    = 0.00147129
throughput change = 0.00136746
Draining all recorded packets ...
Draining remaining packets ...
Time taken is 6048 cycles
====== Overall Traffic Statistics ======
====== Traffic class 0 ======
Packet latency average = 14.6036 (1 samples)
	minimum = 5 (1 samples)
	maximum = 37 (1 samples)
Network latency average = 14.6036 (1 samples)
	minimum = 5 (1 samples)
	maximum = 37 (1 samples)
Flit latency average = 14.6051 (1 samples)
	minimum = 5 (1 samples)
	maximum = 37 (1 samples)
Fragmentation average = 0 (1 samples)
	minimum = 0 (1 samples)
	maximum = 0 (1 samples)
Injected packet rate average = 0.524747 (1 samples)
	minimum = 0.498333 (1 samples)
	maximum = 0.549 (1 samples)
Accepted packet rate average = 0.524764 (1 samples)
	minimum = 0.476667 (1 samples)
	maximum = 0.555667 (1 samples)
Injected flit rate average = 0.524747 (1 samples)
	minimum = 0.498333 (1 samples)
	maximum = 0.549 (1 samples)
Accepted flit rate average = 0.524764 (1 samples)
	minimum = 0.476667 (1 samples)
	maximum = 0.555667 (1 samples)
Injected packet size average = 1 (1 samples)
Accepted packet size average = 1 (1 samples)
Hops average = 2.66731 (1 samples)
Total run time 5.64604
