BEGIN Configuration File: ../../../../booksim2/src/examples/flatflyconfig
// $Id$

// Copyright (c) 2007-2015, Trustees of The Leland Stanford Junior University
// All rights reserved.
//
// Redistribution and use in source and binary forms, with or without
// modification, are permitted provided that the following conditions are met:
//
// Redistributions of source code must retain the above copyright notice, this
// list of conditions and the following disclaimer.
// Redistributions in binary form must reproduce the above copyright notice,
// this list of conditions and the following disclaimer in the documentation
// and/or other materials provided with the distribution.
//
// THIS SOFTWARE IS PROVIDED BY THE COPYRIGHT HOLDERS AND CONTRIBUTORS "AS IS"
// AND ANY EXPRESS OR IMPLIED WARRANTIES, INCLUDING, BUT NOT LIMITED TO, THE
// IMPLIED WARRANTIES OF MERCHANTABILITY AND FITNESS FOR A PARTICULAR PURPOSE
// ARE DISCLAIMED. IN NO EVENT SHALL THE COPYRIGHT OWNER OR CONTRIBUTORS BE
// LIABLE FOR ANY DIRECT, INDIRECT, INCIDENTAL, SPECIAL, EXEMPLARY, OR
// CONSEQUENTIAL DAMAGES (INCLUDING, BUT NOT LIMITED TO, PROCUREMENT OF
// SUBSTITUTE GOODS OR SERVICES; LOSS OF USE, DATA, OR PROFITS; OR BUSINESS
// INTERRUPTION) HOWEVER CAUSED AND ON ANY THEORY OF LIABILITY, WHETHER IN
// CONTRACT, STRICT LIABILITY, OR TORT (INCLUDING NEGLIGENCE OR OTHERWISE)
// ARISING IN ANY WAY OUT OF THE USE OF THIS SOFTWARE, EVEN IF ADVISED OF THE
// POSSIBILITY OF SUCH DAMAGE.

//A flattened butterfly configurate file with many tweaks from the
//default settings. 


// Flow control
// Total number of VCs must match the above assignments
num_vcs     = 2;
vc_buf_size = 16;

wait_for_tail_credit = 0;

//
// Router architectureq
//
vc_allocator = islip; 
sw_allocator = islip;
alloc_iters  = 3;

credit_delay   = 0;
routing_delay  = 1;
vc_alloc_delay = 1;
sw_alloc_delay = 1;
st_final_delay = 1;

input_speedup     = 1;
output_speedup    = 1;
internal_speedup  = 1.6;

//
// Traffic
//

warmup_periods = 3;

sample_period  = 1000;  

sim_count          = 1;

traffic       = uniform;


// Flatfly 
//
// #node = k^(n+1)
//
// x, y, specifies the arrangement of routers in x and y dim
// xr, yr specifiies the arayment of clients in a router
//
topology = flatfly;
subnets = 1;

c  = 6;
k  = 6;
n  = 2;

x  = 6;
y  = 6;
xr = 6;
yr = 1;

use_noc_latency = 0;

//
// Routing
//

routing_function = ran_min;

//1: batch mode, 0: injection mode
use_read_write = 0;

//for injection mode
packet_size = 1;
injection_rate = 0.1;

//for batch mode
read_request_size=1;
write_request_size=1;
read_reply_size=1;
write_reply_size=1;

read_request_begin_vc  = 0;
read_request_end_vc    = 3;
write_reply_begin_vc   = 4;
write_reply_end_vc     = 7;
read_reply_begin_vc    = 4;
read_reply_end_vc      = 7;
write_request_begin_vc = 0;
write_request_end_vc   = 3;

//latency: drains all packet, throughput:no drain?
sim_type = latency;

END Configuration File: ../../../../booksim2/src/examples/flatflyconfig
OVERRIDE Parameter: sim_type=latency
OVERRIDE Parameter: traffic=uniform
OVERRIDE Parameter: injection_rate={0.275}
 Flat Bufferfly 
 k = 6 n = 2 c = 6
 each switch - total radix =  16
 # of switches = 36
 # of channels = 360
 # of nodes ( size of network ) = 216
Class 0:
Packet latency average = 12.8971
	minimum = 5
	maximum = 23
Network latency average = 12.8971
	minimum = 5
	maximum = 23
Slowest packet = 30030
Flit latency average = 12.8971
	minimum = 5
	maximum = 23
Slowest flit = 30030
Fragmentation average = 0
	minimum = 0
	maximum = 0
Injected packet rate average = 0.274426
	minimum = 0.244 (at node 1)
	maximum = 0.313 (at node 82)
Accepted packet rate average = 0.270722
	minimum = 0.226 (at node 153)
	maximum = 0.326 (at node 34)
Injected flit rate average = 0.274426
	minimum = 0.244 (at node 1)
	maximum = 0.313 (at node 82)
Accepted flit rate average= 0.270722
	minimum = 0.226 (at node 153)
	maximum = 0.326 (at node 34)
Injected packet length average = 1
Accepted packet length average = 1
Total in-flight flits = 800 (0 measured)
latency change    = 1
throughput change = 1
Class 0:
Packet latency average = 12.906
	minimum = 5
	maximum = 23
Network latency average = 12.906
	minimum = 5
	maximum = 23
Slowest packet = 30030
Flit latency average = 12.906
	minimum = 5
	maximum = 23
Slowest flit = 30030
Fragmentation average = 0
	minimum = 0
	maximum = 0
Injected packet rate average = 0.274178
	minimum = 0.2505 (at node 100)
	maximum = 0.3095 (at node 82)
Accepted packet rate average = 0.27238
	minimum = 0.241 (at node 30)
	maximum = 0.3025 (at node 34)
Injected flit rate average = 0.274178
	minimum = 0.2505 (at node 100)
	maximum = 0.3095 (at node 82)
Accepted flit rate average= 0.27238
	minimum = 0.241 (at node 30)
	maximum = 0.3025 (at node 34)
Injected packet length average = 1
Accepted packet length average = 1
Total in-flight flits = 777 (0 measured)
latency change    = 0.000690551
throughput change = 0.00608492
Class 0:
Packet latency average = 12.9028
	minimum = 5
	maximum = 23
Network latency average = 12.9028
	minimum = 5
	maximum = 23
Slowest packet = 156793
Flit latency average = 12.9028
	minimum = 5
	maximum = 23
Slowest flit = 156793
Fragmentation average = 0
	minimum = 0
	maximum = 0
Injected packet rate average = 0.275616
	minimum = 0.239 (at node 214)
	maximum = 0.313 (at node 24)
Accepted packet rate average = 0.275491
	minimum = 0.233 (at node 106)
	maximum = 0.323 (at node 156)
Injected flit rate average = 0.275616
	minimum = 0.239 (at node 214)
	maximum = 0.313 (at node 24)
Accepted flit rate average= 0.275491
	minimum = 0.233 (at node 106)
	maximum = 0.323 (at node 156)
Injected packet length average = 1
Accepted packet length average = 1
Total in-flight flits = 804 (0 measured)
latency change    = 0.000250499
throughput change = 0.011293
Warmed up ...Time used is 3000 cycles
Class 0:
Packet latency average = 12.9251
	minimum = 5
	maximum = 22
Network latency average = 12.9251
	minimum = 5
	maximum = 22
Slowest packet = 229042
Flit latency average = 12.9313
	minimum = 5
	maximum = 22
Slowest flit = 229042
Fragmentation average = 0
	minimum = 0
	maximum = 0
Injected packet rate average = 0.274676
	minimum = 0.226 (at node 33)
	maximum = 0.319 (at node 19)
Accepted packet rate average = 0.274792
	minimum = 0.23 (at node 95)
	maximum = 0.326 (at node 62)
Injected flit rate average = 0.274676
	minimum = 0.226 (at node 33)
	maximum = 0.319 (at node 19)
Accepted flit rate average= 0.274792
	minimum = 0.23 (at node 95)
	maximum = 0.326 (at node 62)
Injected packet length average = 1
Accepted packet length average = 1
Total in-flight flits = 779 (779 measured)
latency change    = 0.00172461
throughput change = 0.00254401
Class 0:
Packet latency average = 12.9214
	minimum = 5
	maximum = 22
Network latency average = 12.9214
	minimum = 5
	maximum = 22
Slowest packet = 229042
Flit latency average = 12.9245
	minimum = 5
	maximum = 22
Slowest flit = 229042
Fragmentation average = 0
	minimum = 0
	maximum = 0
Injected packet rate average = 0.274977
	minimum = 0.244 (at node 33)
	maximum = 0.3045 (at node 124)
Accepted packet rate average = 0.275093
	minimum = 0.244 (at node 116)
	maximum = 0.3055 (at node 211)
Injected flit rate average = 0.274977
	minimum = 0.244 (at node 33)
	maximum = 0.3045 (at node 124)
Accepted flit rate average= 0.275093
	minimum = 0.244 (at node 116)
	maximum = 0.3055 (at node 211)
Injected packet length average = 1
Accepted packet length average = 1
Total in-flight flits = 754 (754 measured)
latency change    = 0.000283901
throughput change = 0.00109391
Class 0:
Packet latency average = 12.9164
	minimum = 5
	maximum = 24
Network latency average = 12.9164
	minimum = 5
	maximum = 24
Slowest packet = 341298
Flit latency average = 12.9185
	minimum = 5
	maximum = 24
Slowest flit = 341298
Fragmentation average = 0
	minimum = 0
	maximum = 0
Injected packet rate average = 0.274481
	minimum = 0.248333 (at node 5)
	maximum = 0.294 (at node 129)
Accepted packet rate average = 0.274503
	minimum = 0.247333 (at node 95)
	maximum = 0.296667 (at node 94)
Injected flit rate average = 0.274481
	minimum = 0.248333 (at node 5)
	maximum = 0.294 (at node 129)
Accepted flit rate average= 0.274503
	minimum = 0.247333 (at node 95)
	maximum = 0.296667 (at node 94)
Injected packet length average = 1
Accepted packet length average = 1
Total in-flight flits = 790 (790 measured)
latency change    = 0.000386912
throughput change = 0.00214754
Draining all recorded packets ...
Draining remaining packets ...
Time taken is 6036 cycles
====== Overall Traffic Statistics ======
====== Traffic class 0 ======
Packet latency average = 12.9173 (1 samples)
	minimum = 5 (1 samples)
	maximum = 24 (1 samples)
Network latency average = 12.9173 (1 samples)
	minimum = 5 (1 samples)
	maximum = 24 (1 samples)
Flit latency average = 12.9199 (1 samples)
	minimum = 5 (1 samples)
	maximum = 24 (1 samples)
Fragmentation average = 0 (1 samples)
	minimum = 0 (1 samples)
	maximum = 0 (1 samples)
Injected packet rate average = 0.274481 (1 samples)
	minimum = 0.248333 (1 samples)
	maximum = 0.294 (1 samples)
Accepted packet rate average = 0.274503 (1 samples)
	minimum = 0.247333 (1 samples)
	maximum = 0.296667 (1 samples)
Injected flit rate average = 0.274481 (1 samples)
	minimum = 0.248333 (1 samples)
	maximum = 0.294 (1 samples)
Accepted flit rate average = 0.274503 (1 samples)
	minimum = 0.247333 (1 samples)
	maximum = 0.296667 (1 samples)
Injected packet size average = 1 (1 samples)
Accepted packet size average = 1 (1 samples)
Hops average = 2.66698 (1 samples)
Total run time 3.0568
