BEGIN Configuration File: ../../../../booksim2/src/examples/flatflyconfig
// $Id$

// Copyright (c) 2007-2015, Trustees of The Leland Stanford Junior University
// All rights reserved.
//
// Redistribution and use in source and binary forms, with or without
// modification, are permitted provided that the following conditions are met:
//
// Redistributions of source code must retain the above copyright notice, this
// list of conditions and the following disclaimer.
// Redistributions in binary form must reproduce the above copyright notice,
// this list of conditions and the following disclaimer in the documentation
// and/or other materials provided with the distribution.
//
// THIS SOFTWARE IS PROVIDED BY THE COPYRIGHT HOLDERS AND CONTRIBUTORS "AS IS"
// AND ANY EXPRESS OR IMPLIED WARRANTIES, INCLUDING, BUT NOT LIMITED TO, THE
// IMPLIED WARRANTIES OF MERCHANTABILITY AND FITNESS FOR A PARTICULAR PURPOSE
// ARE DISCLAIMED. IN NO EVENT SHALL THE COPYRIGHT OWNER OR CONTRIBUTORS BE
// LIABLE FOR ANY DIRECT, INDIRECT, INCIDENTAL, SPECIAL, EXEMPLARY, OR
// CONSEQUENTIAL DAMAGES (INCLUDING, BUT NOT LIMITED TO, PROCUREMENT OF
// SUBSTITUTE GOODS OR SERVICES; LOSS OF USE, DATA, OR PROFITS; OR BUSINESS
// INTERRUPTION) HOWEVER CAUSED AND ON ANY THEORY OF LIABILITY, WHETHER IN
// CONTRACT, STRICT LIABILITY, OR TORT (INCLUDING NEGLIGENCE OR OTHERWISE)
// ARISING IN ANY WAY OUT OF THE USE OF THIS SOFTWARE, EVEN IF ADVISED OF THE
// POSSIBILITY OF SUCH DAMAGE.

//A flattened butterfly configurate file with many tweaks from the
//default settings. 


// Flow control
// Total number of VCs must match the above assignments
num_vcs     = 2;
vc_buf_size = 16;

wait_for_tail_credit = 0;

//
// Router architectureq
//
vc_allocator = islip; 
sw_allocator = islip;
alloc_iters  = 3;

credit_delay   = 0;
routing_delay  = 1;
vc_alloc_delay = 1;
sw_alloc_delay = 1;
st_final_delay = 1;

input_speedup     = 1;
output_speedup    = 1;
internal_speedup  = 1.6;

//
// Traffic
//

warmup_periods = 3;

sample_period  = 1000;  

sim_count          = 1;

traffic       = uniform;


// Flatfly 
//
// #node = k^(n+1)
//
// x, y, specifies the arrangement of routers in x and y dim
// xr, yr specifiies the arayment of clients in a router
//
topology = flatfly;
subnets = 1;

c  = 6;
k  = 6;
n  = 2;

x  = 6;
y  = 6;
xr = 6;
yr = 1;

use_noc_latency = 0;

//
// Routing
//

routing_function = ran_min;

//1: batch mode, 0: injection mode
use_read_write = 0;

//for injection mode
packet_size = 1;
injection_rate = 0.1;

//for batch mode
read_request_size=1;
write_request_size=1;
read_reply_size=1;
write_reply_size=1;

read_request_begin_vc  = 0;
read_request_end_vc    = 3;
write_reply_begin_vc   = 4;
write_reply_end_vc     = 7;
read_reply_begin_vc    = 4;
read_reply_end_vc      = 7;
write_request_begin_vc = 0;
write_request_end_vc   = 3;

//latency: drains all packet, throughput:no drain?
sim_type = latency;

END Configuration File: ../../../../booksim2/src/examples/flatflyconfig
OVERRIDE Parameter: sim_type=latency
OVERRIDE Parameter: traffic=uniform
OVERRIDE Parameter: injection_rate={0.725}
 Flat Bufferfly 
 k = 6 n = 2 c = 6
 each switch - total radix =  16
 # of switches = 36
 # of channels = 360
 # of nodes ( size of network ) = 216
Class 0:
Packet latency average = 24.2792
	minimum = 5
	maximum = 91
Network latency average = 24.2792
	minimum = 5
	maximum = 91
Slowest packet = 140796
Flit latency average = 24.2792
	minimum = 5
	maximum = 91
Slowest flit = 140796
Fragmentation average = 0
	minimum = 0
	maximum = 0
Injected packet rate average = 0.724583
	minimum = 0.687 (at node 5)
	maximum = 0.772 (at node 162)
Accepted packet rate average = 0.704856
	minimum = 0.631 (at node 165)
	maximum = 0.784 (at node 34)
Injected flit rate average = 0.724583
	minimum = 0.687 (at node 5)
	maximum = 0.772 (at node 162)
Accepted flit rate average= 0.704856
	minimum = 0.631 (at node 165)
	maximum = 0.784 (at node 34)
Injected packet length average = 1
Accepted packet length average = 1
Total in-flight flits = 4261 (0 measured)
latency change    = 1
throughput change = 1
Class 0:
Packet latency average = 25.664
	minimum = 5
	maximum = 93
Network latency average = 25.664
	minimum = 5
	maximum = 93
Slowest packet = 258767
Flit latency average = 25.664
	minimum = 5
	maximum = 93
Slowest flit = 258767
Fragmentation average = 0
	minimum = 0
	maximum = 0
Injected packet rate average = 0.724294
	minimum = 0.7005 (at node 99)
	maximum = 0.749 (at node 162)
Accepted packet rate average = 0.714491
	minimum = 0.6745 (at node 8)
	maximum = 0.774 (at node 34)
Injected flit rate average = 0.724294
	minimum = 0.7005 (at node 99)
	maximum = 0.749 (at node 162)
Accepted flit rate average= 0.714491
	minimum = 0.6745 (at node 8)
	maximum = 0.774 (at node 34)
Injected packet length average = 1
Accepted packet length average = 1
Total in-flight flits = 4235 (0 measured)
latency change    = 0.0539604
throughput change = 0.0134841
Class 0:
Packet latency average = 27.0112
	minimum = 5
	maximum = 87
Network latency average = 27.0112
	minimum = 5
	maximum = 87
Slowest packet = 342156
Flit latency average = 27.0112
	minimum = 5
	maximum = 87
Slowest flit = 342156
Fragmentation average = 0
	minimum = 0
	maximum = 0
Injected packet rate average = 0.723824
	minimum = 0.679 (at node 210)
	maximum = 0.761 (at node 168)
Accepted packet rate average = 0.724074
	minimum = 0.623 (at node 167)
	maximum = 0.796 (at node 199)
Injected flit rate average = 0.723824
	minimum = 0.679 (at node 210)
	maximum = 0.761 (at node 168)
Accepted flit rate average= 0.724074
	minimum = 0.623 (at node 167)
	maximum = 0.796 (at node 199)
Injected packet length average = 1
Accepted packet length average = 1
Total in-flight flits = 4181 (0 measured)
latency change    = 0.0498766
throughput change = 0.0132353
Warmed up ...Time used is 3000 cycles
Class 0:
Packet latency average = 27.2209
	minimum = 5
	maximum = 91
Network latency average = 27.2209
	minimum = 5
	maximum = 91
Slowest packet = 509607
Flit latency average = 27.3639
	minimum = 5
	maximum = 91
Slowest flit = 509607
Fragmentation average = 0
	minimum = 0
	maximum = 0
Injected packet rate average = 0.725509
	minimum = 0.682 (at node 58)
	maximum = 0.756 (at node 91)
Accepted packet rate average = 0.725181
	minimum = 0.648 (at node 179)
	maximum = 0.807 (at node 106)
Injected flit rate average = 0.725509
	minimum = 0.682 (at node 58)
	maximum = 0.756 (at node 91)
Accepted flit rate average= 0.725181
	minimum = 0.648 (at node 179)
	maximum = 0.807 (at node 106)
Injected packet length average = 1
Accepted packet length average = 1
Total in-flight flits = 4252 (4252 measured)
latency change    = 0.00770406
throughput change = 0.0015258
Class 0:
Packet latency average = 27.4253
	minimum = 5
	maximum = 91
Network latency average = 27.4253
	minimum = 5
	maximum = 91
Slowest packet = 509607
Flit latency average = 27.4941
	minimum = 5
	maximum = 91
Slowest flit = 509607
Fragmentation average = 0
	minimum = 0
	maximum = 0
Injected packet rate average = 0.725382
	minimum = 0.704 (at node 135)
	maximum = 0.7545 (at node 165)
Accepted packet rate average = 0.725218
	minimum = 0.669 (at node 179)
	maximum = 0.7765 (at node 92)
Injected flit rate average = 0.725382
	minimum = 0.704 (at node 135)
	maximum = 0.7545 (at node 165)
Accepted flit rate average= 0.725218
	minimum = 0.669 (at node 179)
	maximum = 0.7765 (at node 92)
Injected packet length average = 1
Accepted packet length average = 1
Total in-flight flits = 4252 (4252 measured)
latency change    = 0.00745273
throughput change = 5.10702e-05
Class 0:
Packet latency average = 27.3008
	minimum = 5
	maximum = 91
Network latency average = 27.3008
	minimum = 5
	maximum = 91
Slowest packet = 509607
Flit latency average = 27.3478
	minimum = 5
	maximum = 91
Slowest flit = 509607
Fragmentation average = 0
	minimum = 0
	maximum = 0
Injected packet rate average = 0.725029
	minimum = 0.703 (at node 123)
	maximum = 0.746333 (at node 122)
Accepted packet rate average = 0.72494
	minimum = 0.677667 (at node 179)
	maximum = 0.766 (at node 106)
Injected flit rate average = 0.725029
	minimum = 0.703 (at node 123)
	maximum = 0.746333 (at node 122)
Accepted flit rate average= 0.72494
	minimum = 0.677667 (at node 179)
	maximum = 0.766 (at node 106)
Injected packet length average = 1
Accepted packet length average = 1
Total in-flight flits = 4239 (4239 measured)
latency change    = 0.00455982
throughput change = 0.000383174
Draining all recorded packets ...
Draining remaining packets ...
Time taken is 6133 cycles
====== Overall Traffic Statistics ======
====== Traffic class 0 ======
Packet latency average = 27.353 (1 samples)
	minimum = 5 (1 samples)
	maximum = 91 (1 samples)
Network latency average = 27.353 (1 samples)
	minimum = 5 (1 samples)
	maximum = 91 (1 samples)
Flit latency average = 27.3863 (1 samples)
	minimum = 5 (1 samples)
	maximum = 91 (1 samples)
Fragmentation average = 0 (1 samples)
	minimum = 0 (1 samples)
	maximum = 0 (1 samples)
Injected packet rate average = 0.725029 (1 samples)
	minimum = 0.703 (1 samples)
	maximum = 0.746333 (1 samples)
Accepted packet rate average = 0.72494 (1 samples)
	minimum = 0.677667 (1 samples)
	maximum = 0.766 (1 samples)
Injected flit rate average = 0.725029 (1 samples)
	minimum = 0.703 (1 samples)
	maximum = 0.746333 (1 samples)
Accepted flit rate average = 0.72494 (1 samples)
	minimum = 0.677667 (1 samples)
	maximum = 0.766 (1 samples)
Injected packet size average = 1 (1 samples)
Accepted packet size average = 1 (1 samples)
Hops average = 2.66775 (1 samples)
Total run time 7.42513
