BEGIN Configuration File: ../../booksim2/src/examples/flatflyconfig
// $Id$

// Copyright (c) 2007-2015, Trustees of The Leland Stanford Junior University
// All rights reserved.
//
// Redistribution and use in source and binary forms, with or without
// modification, are permitted provided that the following conditions are met:
//
// Redistributions of source code must retain the above copyright notice, this
// list of conditions and the following disclaimer.
// Redistributions in binary form must reproduce the above copyright notice,
// this list of conditions and the following disclaimer in the documentation
// and/or other materials provided with the distribution.
//
// THIS SOFTWARE IS PROVIDED BY THE COPYRIGHT HOLDERS AND CONTRIBUTORS "AS IS"
// AND ANY EXPRESS OR IMPLIED WARRANTIES, INCLUDING, BUT NOT LIMITED TO, THE
// IMPLIED WARRANTIES OF MERCHANTABILITY AND FITNESS FOR A PARTICULAR PURPOSE
// ARE DISCLAIMED. IN NO EVENT SHALL THE COPYRIGHT OWNER OR CONTRIBUTORS BE
// LIABLE FOR ANY DIRECT, INDIRECT, INCIDENTAL, SPECIAL, EXEMPLARY, OR
// CONSEQUENTIAL DAMAGES (INCLUDING, BUT NOT LIMITED TO, PROCUREMENT OF
// SUBSTITUTE GOODS OR SERVICES; LOSS OF USE, DATA, OR PROFITS; OR BUSINESS
// INTERRUPTION) HOWEVER CAUSED AND ON ANY THEORY OF LIABILITY, WHETHER IN
// CONTRACT, STRICT LIABILITY, OR TORT (INCLUDING NEGLIGENCE OR OTHERWISE)
// ARISING IN ANY WAY OUT OF THE USE OF THIS SOFTWARE, EVEN IF ADVISED OF THE
// POSSIBILITY OF SUCH DAMAGE.

//A flattened butterfly configurate file with many tweaks from the
//default settings. 


// Flow control
// Total number of VCs must match the above assignments
num_vcs     = 2;
vc_buf_size = 16;

wait_for_tail_credit = 0;

//
// Router architectureq
//
vc_allocator = islip; 
sw_allocator = islip;
alloc_iters  = 3;

credit_delay   = 0;
routing_delay  = 1;
vc_alloc_delay = 1;
sw_alloc_delay = 1;
st_final_delay = 1;

input_speedup     = 1;
output_speedup    = 1;
internal_speedup  = 1.6;

//
// Traffic
//

warmup_periods = 3;

sample_period  = 1000;  

sim_count          = 1;

traffic       = bitrev;


// Flatfly 
//
// #node = k^(n+1)
//
// x, y, specifies the arrangement of routers in x and y dim
// xr, yr specifiies the arayment of clients in a router
//
topology = flatfly;
subnets = 1;

c  = 16;
k  = 16;
n  = 1;

x  = 16;
y  = 1;
xr = 16;
yr = 1;

use_noc_latency = 0;

//
// Routing
//

routing_function = ugal;

//1: batch mode, 0: injection mode
use_read_write = 0;

//for injection mode
packet_size = 1;
injection_rate = 0.1;

//for batch mode
read_request_size=1;
write_request_size=1;
read_reply_size=1;
write_reply_size=1;

read_request_begin_vc  = 0;
read_request_end_vc    = 3;
write_reply_begin_vc   = 4;
write_reply_end_vc     = 7;
read_reply_begin_vc    = 4;
read_reply_end_vc      = 7;
write_request_begin_vc = 0;
write_request_end_vc   = 3;

//latency: drains all packet, throughput:no drain?
sim_type = latency;

watch_out = -;;END Configuration File: ../../booksim2/src/examples/flatflyconfig
OVERRIDE Parameter: routing_function=ugal
OVERRIDE Parameter: traffic=uniform
OVERRIDE Parameter: injection_rate={0.3}
OVERRIDE Parameter: c=32
OVERRIDE Parameter: k=32
OVERRIDE Parameter: x=32
OVERRIDE Parameter: xr=32
OVERRIDE Parameter: sim_type=latency
OVERRIDE Parameter: seed=1
 Flat Bufferfly 
 k = 32 n = 1 c = 32
 each switch - total radix =  63
 # of switches = 32
 # of channels = 992
 # of nodes ( size of network ) = 1024
0 | node2 | Enqueuing flit 1 (packet 1) at time 0.
0 | traffic_manager | Finding output VC for flit 1:
0 | traffic_manager |   Selected output VC 0.
0 | node2 | Injecting flit 1 into subnet 0 at time 0 with priority 0.
1 | network_0/network_0_fchan_ingress2 | Beginning channel traversal for flit 1 with delay 1.
1 | network_0/network_0_fchan_ingress2 | Completed channel traversal for flit 1.
2 | network_0/router_0 | Received flit 1 from channel at input 2.
2 | network_0/router_0 | Adding flit 1 to VC 0 at input 2 (state: idle, empty).
2 | network_0/router_0/buf_2/vc_0 | Changing state from idle to routing.
2 | network_0/router_0 | Beginning routing for VC 0 at input 2 (front: 1).
2 | network_0/router_0 | Completed routing for VC 0 at input 2 (front: 1).
2 | network_0/router_0 |  MIN tmp_out_port: 412 | network_0/router_0 |  NONMIN tmp_out_port: 44
2 | network_0/router_0/buf_2/vc_0 | Changing state from routing to vc_alloc.
2 | network_0/router_0 | Beginning VC allocation for VC 0 at input 2 (front: 1).
2 | network_0/router_0 |   Requesting VC 1 at output 41 (in_pri: 0, out_pri: 0).
2 | network_0/router_0/vc_allocator | Input requests = [ 2 -> [ 95@0 ]  4 -> [ 83@0 ]  8 -> [ 91@0 ]  10 -> [ 79@0 ]  12 -> [ 113@0 ]  20 -> [ 69@0 ]  26 -> [ 87@0 ]  32 -> [ 107@0 ]  40 -> [ 73@0 ]  52 -> [ 75@0 ]  56 -> [ 113@0 ]  ], output requests = [ 69 -> [ 20@0 ]  73 -> [ 40@0 ]  75 -> [ 52@0 ]  79 -> [ 10@0 ]  83 -> [ 4@0 ]  87 -> [ 26@0 ]  91 -> [ 8@0 ]  95 -> [ 2@0 ]  107 -> [ 32@0 ]  113 -> [ 12@0 56@0 ]  ].
2 | network_0/router_0/vc_allocator | Input grants = [ 2 -> 95  4 -> 83  8 -> 91  10 -> 79  12 -> 113  20 -> 69  26 -> 87  32 -> 107  40 -> 73  52 -> 75  ], output grants = [ 69 -> 20  73 -> 40  75 -> 52  79 -> 10  83 -> 4  87 -> 26  91 -> 8  95 -> 2  107 -> 32  113 -> 12  ].
2 | network_0/router_0 | Assigning VC 1 at output 41 to VC 0 at input 2.
2 | network_0/router_0 | Completed VC allocation for VC 0 at input 2 (front: 1).
2 | network_0/router_0 |   Acquiring assigned VC 1 at output 41.
2 | network_0/router_0/buf_2/vc_0 | Changing state from vc_alloc to active.
2 | network_0/router_0 | Beginning switch allocation for VC 0 at input 2 (front: 1).
2 | network_0/router_0 |   Requesting output 41.0 (non-spec, pri: 0).
2 | network_0/router_0/sw_allocator | Input requests = [ 1 -> [ 47@0 ]  2 -> [ 41@0 ]  4 -> [ 45@0 ]  5 -> [ 39@0 ]  6 -> [ 56@0 ]  10 -> [ 34@0 ]  13 -> [ 43@0 ]  16 -> [ 53@0 ]  20 -> [ 36@0 ]  26 -> [ 37@0 ]  ], output requests = [ 34 -> [ 10@0 ]  36 -> [ 20@0 ]  37 -> [ 26@0 ]  39 -> [ 5@0 ]  41 -> [ 2@0 ]  43 -> [ 13@0 ]  45 -> [ 4@0 ]  47 -> [ 1@0 ]  53 -> [ 16@0 ]  56 -> [ 6@0 ]  ].
2 | network_0/router_0/sw_allocator | Input grants = [ 1 -> 47  2 -> 41  4 -> 45  5 -> 39  6 -> 56  10 -> 34  13 -> 43  16 -> 53  20 -> 36  26 -> 37  ], output grants = [ 34 -> 10  36 -> 20  37 -> 26  39 -> 5  41 -> 2  43 -> 13  45 -> 4  47 -> 1  53 -> 16  56 -> 6  ].
2 | network_0/router_0 | Assigning output 41.0 to VC 0 at input 2.0.
2 | network_0/router_0 | Completed switch allocation for VC 0 at input 2 (front: 1).
2 | network_0/router_0 |   Scheduling switch connection from input 2.0 to output 41.0.
2 | network_0/router_0 | Beginning crossbar traversal for flit 1 from input 2.0 to output 41.0.
2 | network_0/router_0 | Completed crossbar traversal for flit 1 from input 2.0 to output 41.0.
2 | network_0/router_0 | Buffering flit 1 at output 41.
2 | network_0/router_0 | Sending flit 1 to channel at output 41.
3 | network_0/network_0_fchan_9 | Beginning channel traversal for flit 1 with delay 1.
3 | network_0/network_0_fchan_9 | Completed channel traversal for flit 1.
4 | network_0/router_10 | Received flit 1 from channel at input 32.
4 | network_0/router_10 | Adding flit 1 to VC 1 at input 32 (state: idle, empty).
4 | network_0/router_10/buf_32/vc_1 | Changing state from idle to routing.
4 | network_0/router_10 | Beginning routing for VC 1 at input 32 (front: 1).
4 | network_0/router_10 | Completed routing for VC 1 at input 32 (front: 1).
4 | network_0/router_10/buf_32/vc_1 | Changing state from routing to vc_alloc.
4 | network_0/router_10 | Beginning VC allocation for VC 1 at input 32 (front: 1).
4 | network_0/router_10 |   Requesting VC 0 at output 25 (in_pri: 0, out_pri: 0).
4 | network_0/router_10 |   Requesting VC 1 at output 25 (in_pri: 0, out_pri: 0).
4 | network_0/router_10/vc_allocator | Input requests = [ 2 -> [ 125@0 ]  9 -> [ 71@0 ]  11 -> [ 89@0 ]  12 -> [ 123@0 ]  17 -> [ 95@0 ]  25 -> [ 97@0 ]  29 -> [ 80@0 ]  30 -> [ 103@0 ]  32 -> [ 70@0 ]  40 -> [ 83@0 ]  42 -> [ 123@0 ]  46 -> [ 71@0 ]  50 -> [ 125@0 ]  53 -> [ 34@0 35@0 ]  56 -> [ 119@0 ]  59 -> [ 123@0 ]  63 -> [ 101@0 ]  65 -> [ 50@0 51@0 ]  75 -> [ 40@0 41@0 ]  79 -> [ 6@0 7@0 ]  85 -> [ 50@0 51@0 ]  91 -> [ 28@0 29@0 ]  101 -> [ 34@0 35@0 ]  117 -> [ 16@0 17@0 ]  119 -> [ 8@0 9@0 ]  125 -> [ 18@0 19@0 ]  ], output requests = [ 6 -> [ 79@0 ]  7 -> [ 79@0 ]  8 -> [ 119@0 ]  9 -> [ 119@0 ]  16 -> [ 117@0 ]  17 -> [ 117@0 ]  18 -> [ 125@0 ]  19 -> [ 125@0 ]  28 -> [ 91@0 ]  29 -> [ 91@0 ]  34 -> [ 53@0 101@0 ]  35 -> [ 53@0 101@0 ]  40 -> [ 75@0 ]  41 -> [ 75@0 ]  50 -> [ 65@0 85@0 ]  51 -> [ 65@0 85@0 ]  70 -> [ 32@0 ]  71 -> [ 9@0 46@0 ]  80 -> [ 29@0 ]  83 -> [ 40@0 ]  89 -> [ 11@0 ]  95 -> [ 17@0 ]  97 -> [ 25@0 ]  101 -> [ 63@0 ]  103 -> [ 30@0 ]  119 -> [ 56@0 ]  123 -> [ 12@0 42@0 59@0 ]  125 -> [ 2@0 50@0 ]  ].
4 | network_0/router_10/vc_allocator | Input grants = [ 2 -> 125  9 -> 71  11 -> 89  17 -> 95  25 -> 97  29 -> 80  30 -> 103  32 -> 70  40 -> 83  42 -> 123  53 -> 34  56 -> 119  63 -> 101  65 -> 50  75 -> 40  79 -> 6  91 -> 28  117 -> 16  119 -> 8  125 -> 18  ], output grants = [ 6 -> 79  8 -> 119  16 -> 117  18 -> 125  28 -> 91  34 -> 53  40 -> 75  50 -> 65  70 -> 32  71 -> 9  80 -> 29  83 -> 40  89 -> 11  95 -> 17  97 -> 25  101 -> 63  103 -> 30  119 -> 56  123 -> 42  125 -> 2  ].
4 | network_0/router_10 | Assigning VC 0 at output 25 to VC 1 at input 32.
4 | network_0/router_10 | Completed VC allocation for VC 1 at input 32 (front: 1).
4 | network_0/router_10 |   Acquiring assigned VC 0 at output 25.
4 | network_0/router_10/buf_32/vc_1 | Changing state from vc_alloc to active.
4 | network_0/router_10 | Beginning switch allocation for VC 1 at input 32 (front: 1).
4 | network_0/router_10 |   Requesting output 25.0 (non-spec, pri: 0).
4 | network_0/router_10/sw_allocator | Input requests = [ 1 -> [ 62@0 ]  4 -> [ 35@0 ]  5 -> [ 44@0 ]  8 -> [ 47@0 ]  12 -> [ 48@0 ]  14 -> [ 40@0 ]  15 -> [ 51@0 ]  16 -> [ 35@0 ]  20 -> [ 41@0 ]  21 -> [ 61@0 ]  26 -> [ 17@0 ]  28 -> [ 59@0 ]  31 -> [ 50@0 ]  32 -> [ 25@0 ]  37 -> [ 20@0 ]  39 -> [ 3@0 ]  45 -> [ 14@0 ]  58 -> [ 8@0 ]  59 -> [ 4@0 ]  62 -> [ 9@0 ]  ], output requests = [ 3 -> [ 39@0 ]  4 -> [ 59@0 ]  8 -> [ 58@0 ]  9 -> [ 62@0 ]  14 -> [ 45@0 ]  17 -> [ 26@0 ]  20 -> [ 37@0 ]  25 -> [ 32@0 ]  35 -> [ 4@0 16@0 ]  40 -> [ 14@0 ]  41 -> [ 20@0 ]  44 -> [ 5@0 ]  47 -> [ 8@0 ]  48 -> [ 12@0 ]  50 -> [ 31@0 ]  51 -> [ 15@0 ]  59 -> [ 28@0 ]  61 -> [ 21@0 ]  62 -> [ 1@0 ]  ].
4 | network_0/router_10/sw_allocator | Input grants = [ 1 -> 62  4 -> 35  5 -> 44  8 -> 47  12 -> 48  14 -> 40  15 -> 51  20 -> 41  21 -> 61  26 -> 17  28 -> 59  31 -> 50  32 -> 25  37 -> 20  39 -> 3  45 -> 14  58 -> 8  59 -> 4  62 -> 9  ], output grants = [ 3 -> 39  4 -> 59  8 -> 58  9 -> 62  14 -> 45  17 -> 26  20 -> 37  25 -> 32  35 -> 4  40 -> 14  41 -> 20  44 -> 5  47 -> 8  48 -> 12  50 -> 31  51 -> 15  59 -> 28  61 -> 21  62 -> 1  ].
4 | network_0/router_10 | Assigning output 25.0 to VC 1 at input 32.0.
4 | network_0/router_10 | Completed switch allocation for VC 1 at input 32 (front: 1).
4 | network_0/router_10 |   Scheduling switch connection from input 32.0 to output 25.0.
4 | network_0/router_10 | Beginning crossbar traversal for flit 1 from input 32.0 to output 25.0.
4 | network_0/router_10 | Completed crossbar traversal for flit 1 from input 32.0 to output 25.0.
4 | network_0/router_10 | Buffering flit 1 at output 25.
4 | network_0/router_10 | Sending flit 1 to channel at output 25.
5 | network_0/network_0_fchan_egress345 | Beginning channel traversal for flit 1 with delay 1.
5 | network_0/network_0_fchan_egress345 | Completed channel traversal for flit 1.
6 | node345 | Ejecting flit 1 (packet 1) from VC 0.
6 | node345 | Injecting credit for VC 0 into subnet 0.
6 | node345 | Retiring flit 1 (packet 1, src = 2, dest = 345, hops = 2, flat = 6).
6 | node345 | Retiring packet 1 (plat = 6, nlat = 6, frag = 0, src = 2, dest = 345).
Class 0:
Packet latency average = 6.8815
	minimum = 4
	maximum = 16
Network latency average = 6.8815
	minimum = 4
	maximum = 16
Slowest packet = 187216
Flit latency average = 6.8815
	minimum = 4
	maximum = 16
Slowest flit = 187216
Fragmentation average = 0
	minimum = 0
	maximum = 0
Injected packet rate average = 0.300217
	minimum = 0.246 (at node 554)
	maximum = 0.349 (at node 112)
Accepted packet rate average = 0.298149
	minimum = 0.238 (at node 964)
	maximum = 0.351 (at node 518)
Injected flit rate average = 0.300217
	minimum = 0.246 (at node 554)
	maximum = 0.349 (at node 112)
Accepted flit rate average= 0.298149
	minimum = 0.238 (at node 964)
	maximum = 0.351 (at node 518)
Injected packet length average = 1
Accepted packet length average = 1
Total in-flight flits = 2117 (0 measured)
latency change    = 1
throughput change = 1
Class 0:
Packet latency average = 6.88338
	minimum = 4
	maximum = 16
Network latency average = 6.88338
	minimum = 4
	maximum = 16
Slowest packet = 187216
Flit latency average = 6.88338
	minimum = 4
	maximum = 16
Slowest flit = 187216
Fragmentation average = 0
	minimum = 0
	maximum = 0
Injected packet rate average = 0.300232
	minimum = 0.2665 (at node 534)
	maximum = 0.331 (at node 971)
Accepted packet rate average = 0.29922
	minimum = 0.259 (at node 964)
	maximum = 0.34 (at node 1007)
Injected flit rate average = 0.300232
	minimum = 0.2665 (at node 534)
	maximum = 0.331 (at node 971)
Accepted flit rate average= 0.29922
	minimum = 0.259 (at node 964)
	maximum = 0.34 (at node 1007)
Injected packet length average = 1
Accepted packet length average = 1
Total in-flight flits = 2073 (0 measured)
latency change    = 0.00027352
throughput change = 0.00357701
Class 0:
Packet latency average = 6.88286
	minimum = 4
	maximum = 16
Network latency average = 6.88286
	minimum = 4
	maximum = 16
Slowest packet = 893850
Flit latency average = 6.88286
	minimum = 4
	maximum = 16
Slowest flit = 893850
Fragmentation average = 0
	minimum = 0
	maximum = 0
Injected packet rate average = 0.299308
	minimum = 0.252 (at node 498)
	maximum = 0.344 (at node 743)
Accepted packet rate average = 0.299172
	minimum = 0.241 (at node 511)
	maximum = 0.352 (at node 194)
Injected flit rate average = 0.299308
	minimum = 0.252 (at node 498)
	maximum = 0.344 (at node 743)
Accepted flit rate average= 0.299172
	minimum = 0.241 (at node 511)
	maximum = 0.352 (at node 194)
Injected packet length average = 1
Accepted packet length average = 1
Total in-flight flits = 2212 (0 measured)
latency change    = 7.62192e-05
throughput change = 0.000159947
Warmed up ...Time used is 3000 cycles
Class 0:
Packet latency average = 6.87952
	minimum = 4
	maximum = 15
Network latency average = 6.87952
	minimum = 4
	maximum = 15
Slowest packet = 980192
Flit latency average = 6.88087
	minimum = 4
	maximum = 15
Slowest flit = 980192
Fragmentation average = 0
	minimum = 0
	maximum = 0
Injected packet rate average = 0.30043
	minimum = 0.247 (at node 352)
	maximum = 0.34 (at node 645)
Accepted packet rate average = 0.300561
	minimum = 0.248 (at node 432)
	maximum = 0.363 (at node 667)
Injected flit rate average = 0.30043
	minimum = 0.247 (at node 352)
	maximum = 0.34 (at node 645)
Accepted flit rate average= 0.300561
	minimum = 0.248 (at node 432)
	maximum = 0.363 (at node 667)
Injected packet length average = 1
Accepted packet length average = 1
Total in-flight flits = 2078 (2078 measured)
latency change    = 0.000485957
throughput change = 0.00462027
Class 0:
Packet latency average = 6.88062
	minimum = 4
	maximum = 18
Network latency average = 6.88062
	minimum = 4
	maximum = 18
Slowest packet = 1322036
Flit latency average = 6.88129
	minimum = 4
	maximum = 18
Slowest flit = 1322036
Fragmentation average = 0
	minimum = 0
	maximum = 0
Injected packet rate average = 0.300027
	minimum = 0.2695 (at node 714)
	maximum = 0.331 (at node 356)
Accepted packet rate average = 0.300077
	minimum = 0.263 (at node 545)
	maximum = 0.336 (at node 242)
Injected flit rate average = 0.300027
	minimum = 0.2695 (at node 714)
	maximum = 0.331 (at node 356)
Accepted flit rate average= 0.300077
	minimum = 0.263 (at node 545)
	maximum = 0.336 (at node 242)
Injected packet length average = 1
Accepted packet length average = 1
Total in-flight flits = 2109 (2109 measured)
latency change    = 0.000159786
throughput change = 0.00161091
Class 0:
Packet latency average = 6.8826
	minimum = 4
	maximum = 18
Network latency average = 6.8826
	minimum = 4
	maximum = 18
Slowest packet = 1322036
Flit latency average = 6.88304
	minimum = 4
	maximum = 18
Slowest flit = 1322036
Fragmentation average = 0
	minimum = 0
	maximum = 0
Injected packet rate average = 0.299907
	minimum = 0.277667 (at node 400)
	maximum = 0.323333 (at node 356)
Accepted packet rate average = 0.299949
	minimum = 0.27 (at node 192)
	maximum = 0.328333 (at node 867)
Injected flit rate average = 0.299907
	minimum = 0.277667 (at node 400)
	maximum = 0.323333 (at node 356)
Accepted flit rate average= 0.299949
	minimum = 0.27 (at node 192)
	maximum = 0.328333 (at node 867)
Injected packet length average = 1
Accepted packet length average = 1
Total in-flight flits = 2082 (2082 measured)
latency change    = 0.000288321
throughput change = 0.000426504
Draining all recorded packets ...
Draining remaining packets ...
Time taken is 6026 cycles
====== Overall Traffic Statistics ======
====== Traffic class 0 ======
Packet latency average = 6.88306 (1 samples)
	minimum = 4 (1 samples)
	maximum = 18 (1 samples)
Network latency average = 6.88306 (1 samples)
	minimum = 4 (1 samples)
	maximum = 18 (1 samples)
Flit latency average = 6.88337 (1 samples)
	minimum = 4 (1 samples)
	maximum = 18 (1 samples)
Fragmentation average = 0 (1 samples)
	minimum = 0 (1 samples)
	maximum = 0 (1 samples)
Injected packet rate average = 0.299907 (1 samples)
	minimum = 0.277667 (1 samples)
	maximum = 0.323333 (1 samples)
Accepted packet rate average = 0.299949 (1 samples)
	minimum = 0.27 (1 samples)
	maximum = 0.328333 (1 samples)
Injected flit rate average = 0.299907 (1 samples)
	minimum = 0.277667 (1 samples)
	maximum = 0.323333 (1 samples)
Accepted flit rate average = 0.299949 (1 samples)
	minimum = 0.27 (1 samples)
	maximum = 0.328333 (1 samples)
Injected packet size average = 1 (1 samples)
Accepted packet size average = 1 (1 samples)
Hops average = 2.17521 (1 samples)
Total run time 5595.03
