BEGIN Configuration File: ../../booksim2/src/examples/flatflyconfig
// $Id$

// Copyright (c) 2007-2015, Trustees of The Leland Stanford Junior University
// All rights reserved.
//
// Redistribution and use in source and binary forms, with or without
// modification, are permitted provided that the following conditions are met:
//
// Redistributions of source code must retain the above copyright notice, this
// list of conditions and the following disclaimer.
// Redistributions in binary form must reproduce the above copyright notice,
// this list of conditions and the following disclaimer in the documentation
// and/or other materials provided with the distribution.
//
// THIS SOFTWARE IS PROVIDED BY THE COPYRIGHT HOLDERS AND CONTRIBUTORS "AS IS"
// AND ANY EXPRESS OR IMPLIED WARRANTIES, INCLUDING, BUT NOT LIMITED TO, THE
// IMPLIED WARRANTIES OF MERCHANTABILITY AND FITNESS FOR A PARTICULAR PURPOSE
// ARE DISCLAIMED. IN NO EVENT SHALL THE COPYRIGHT OWNER OR CONTRIBUTORS BE
// LIABLE FOR ANY DIRECT, INDIRECT, INCIDENTAL, SPECIAL, EXEMPLARY, OR
// CONSEQUENTIAL DAMAGES (INCLUDING, BUT NOT LIMITED TO, PROCUREMENT OF
// SUBSTITUTE GOODS OR SERVICES; LOSS OF USE, DATA, OR PROFITS; OR BUSINESS
// INTERRUPTION) HOWEVER CAUSED AND ON ANY THEORY OF LIABILITY, WHETHER IN
// CONTRACT, STRICT LIABILITY, OR TORT (INCLUDING NEGLIGENCE OR OTHERWISE)
// ARISING IN ANY WAY OUT OF THE USE OF THIS SOFTWARE, EVEN IF ADVISED OF THE
// POSSIBILITY OF SUCH DAMAGE.

//A flattened butterfly configurate file with many tweaks from the
//default settings. 


// Flow control
// Total number of VCs must match the above assignments
num_vcs     = 2;
vc_buf_size = 16;

wait_for_tail_credit = 0;

//
// Router architectureq
//
vc_allocator = islip; 
sw_allocator = islip;
alloc_iters  = 3;

credit_delay   = 0;
routing_delay  = 1;
vc_alloc_delay = 1;
sw_alloc_delay = 1;
st_final_delay = 1;

input_speedup     = 1;
output_speedup    = 1;
internal_speedup  = 1.6;

//
// Traffic
//

warmup_periods = 3;

sample_period  = 1000;  

sim_count          = 1;

traffic       = bitrev;


// Flatfly 
//
// #node = k^(n+1)
//
// x, y, specifies the arrangement of routers in x and y dim
// xr, yr specifiies the arayment of clients in a router
//
topology = flatfly;
subnets = 1;

c  = 16;
k  = 16;
n  = 1;

x  = 16;
y  = 1;
xr = 16;
yr = 1;

use_noc_latency = 0;

//
// Routing
//

routing_function = ugal;

//1: batch mode, 0: injection mode
use_read_write = 0;

//for injection mode
packet_size = 1;
injection_rate = 0.1;

//for batch mode
read_request_size=1;
write_request_size=1;
read_reply_size=1;
write_reply_size=1;

read_request_begin_vc  = 0;
read_request_end_vc    = 3;
write_reply_begin_vc   = 4;
write_reply_end_vc     = 7;
read_reply_begin_vc    = 4;
read_reply_end_vc      = 7;
write_request_begin_vc = 0;
write_request_end_vc   = 3;

//latency: drains all packet, throughput:no drain?
sim_type = latency;

watch_out = -;;END Configuration File: ../../booksim2/src/examples/flatflyconfig
OVERRIDE Parameter: routing_function=ugal
OVERRIDE Parameter: traffic=bitcomp
OVERRIDE Parameter: injection_rate={0.2}
OVERRIDE Parameter: c=32
OVERRIDE Parameter: k=32
OVERRIDE Parameter: x=32
OVERRIDE Parameter: xr=32
OVERRIDE Parameter: sim_type=latency
OVERRIDE Parameter: seed=1
 Flat Bufferfly 
 k = 32 n = 1 c = 32
 each switch - total radix =  63
 # of switches = 32
 # of channels = 992
 # of nodes ( size of network ) = 1024
0 | node4 | Enqueuing flit 1 (packet 1) at time 0.
0 | traffic_manager | Finding output VC for flit 1:
0 | traffic_manager |   Selected output VC 0.
0 | node4 | Injecting flit 1 into subnet 0 at time 0 with priority 0.
1 | network_0/network_0_fchan_ingress4 | Beginning channel traversal for flit 1 with delay 1.
1 | network_0/network_0_fchan_ingress4 | Completed channel traversal for flit 1.
2 | network_0/router_0 | Received flit 1 from channel at input 4.
2 | network_0/router_0 | Adding flit 1 to VC 0 at input 4 (state: idle, empty).
2 | network_0/router_0/buf_4/vc_0 | Changing state from idle to routing.
2 | network_0/router_0 | Beginning routing for VC 0 at input 4 (front: 1).
2 | network_0/router_0 | Completed routing for VC 0 at input 4 (front: 1).
2 | network_0/router_0 |  MIN tmp_out_port: 622 | network_0/router_0 |  NONMIN tmp_out_port: 33
2 | network_0/router_0/buf_4/vc_0 | Changing state from routing to vc_alloc.
2 | network_0/router_0 | Beginning VC allocation for VC 0 at input 4 (front: 1).
2 | network_0/router_0 |   Requesting VC 1 at output 62 (in_pri: 0, out_pri: 0).
2 | network_0/router_0/vc_allocator | Input requests = [ 2 -> [ 125@0 ]  8 -> [ 125@0 ]  10 -> [ 125@0 ]  20 -> [ 125@0 ]  26 -> [ 125@0 ]  32 -> [ 125@0 ]  40 -> [ 125@0 ]  52 -> [ 125@0 ]  56 -> [ 125@0 ]  ], output requests = [ 125 -> [ 2@0 8@0 10@0 20@0 26@0 32@0 40@0 52@0 56@0 ]  ].
2 | network_0/router_0/vc_allocator | Input grants = [ 2 -> 125  ], output grants = [ 125 -> 2  ].
2 | network_0/router_0 | VC allocation failed for VC 0 at input 4.
2 | network_0/router_0 | Completed VC allocation for VC 0 at input 4 (front: 1).
2 | network_0/router_0 |   No output VC allocated.
3 | network_0/router_0 | Beginning VC allocation for VC 0 at input 4 (front: 1).
3 | network_0/router_0 |   Requesting VC 1 at output 62 (in_pri: 0, out_pri: 0).
3 | network_0/router_0/vc_allocator | Input requests = [ 3 -> [ 84@0 ]  4 -> [ 118@0 ]  8 -> [ 125@0 ]  9 -> [ 86@0 ]  10 -> [ 125@0 ]  16 -> [ 116@0 ]  18 -> [ 74@0 ]  20 -> [ 125@0 ]  26 -> [ 125@0 ]  32 -> [ 125@0 ]  36 -> [ 66@0 ]  40 -> [ 125@0 ]  50 -> [ 68@0 ]  52 -> [ 125@0 ]  56 -> [ 125@0 ]  58 -> [ 116@0 ]  ], output requests = [ 66 -> [ 36@0 ]  68 -> [ 50@0 ]  74 -> [ 18@0 ]  84 -> [ 3@0 ]  86 -> [ 9@0 ]  116 -> [ 16@0 58@0 ]  118 -> [ 4@0 ]  125 -> [ 8@0 10@0 20@0 26@0 32@0 40@0 52@0 56@0 ]  ].
3 | network_0/router_0/vc_allocator | Input grants = [ 3 -> 84  4 -> 118  8 -> 125  9 -> 86  16 -> 116  18 -> 74  36 -> 66  50 -> 68  ], output grants = [ 66 -> 36  68 -> 50  74 -> 18  84 -> 3  86 -> 9  116 -> 16  118 -> 4  125 -> 8  ].
3 | network_0/router_0 | Assigning VC 1 at output 62 to VC 0 at input 4.
3 | network_0/router_0 | Completed VC allocation for VC 0 at input 4 (front: 1).
3 | network_0/router_0 |   Acquiring assigned VC 1 at output 62.
3 | network_0/router_0/buf_4/vc_0 | Changing state from vc_alloc to active.
3 | network_0/router_0 | Beginning switch allocation for VC 0 at input 4 (front: 1).
3 | network_0/router_0 |   Requesting output 62.0 (non-spec, pri: 0).
3 | network_0/router_0/sw_allocator | Input requests = [ 1 -> [ 42@0 ]  2 -> [ 59@0 ]  4 -> [ 43@0 62@0 ]  8 -> [ 58@0 ]  9 -> [ 37@0 ]  18 -> [ 33@0 ]  25 -> [ 34@0 ]  ], output requests = [ 33 -> [ 18@0 ]  34 -> [ 25@0 ]  37 -> [ 9@0 ]  42 -> [ 1@0 ]  43 -> [ 4@0 ]  58 -> [ 8@0 ]  59 -> [ 2@0 ]  62 -> [ 4@0 ]  ].
3 | network_0/router_0/sw_allocator | Input grants = [ 1 -> 42  2 -> 59  4 -> 43  8 -> 58  9 -> 37  18 -> 33  25 -> 34  ], output grants = [ 33 -> 18  34 -> 25  37 -> 9  42 -> 1  43 -> 4  58 -> 8  59 -> 2  ].
3 | network_0/router_0 | Switch allocation failed for VC 0 at input 4: Granted to VC 1.
3 | network_0/router_0 | Completed switch allocation for VC 0 at input 4 (front: 1).
3 | network_0/router_0 |   No output port allocated.
3 | network_0/router_0 | Beginning switch allocation for VC 0 at input 4 (front: 1).
3 | network_0/router_0 |   Requesting output 62.0 (non-spec, pri: 0).
3 | network_0/router_0/sw_allocator | Input requests = [ 4 -> [ 62@0 ]  29 -> [ 58@0 ]  ], output requests = [ 58 -> [ 29@0 ]  62 -> [ 4@0 ]  ].
3 | network_0/router_0/sw_allocator | Input grants = [ 4 -> 62  29 -> 58  ], output grants = [ 58 -> 29  62 -> 4  ].
3 | network_0/router_0 | Assigning output 62.0 to VC 0 at input 4.0.
3 | network_0/router_0 | Completed switch allocation for VC 0 at input 4 (front: 1).
3 | network_0/router_0 |   Scheduling switch connection from input 4.0 to output 62.0.
3 | network_0/router_0 | Beginning crossbar traversal for flit 1 from input 4.0 to output 62.0.
3 | network_0/router_0 | Completed crossbar traversal for flit 1 from input 4.0 to output 62.0.
3 | network_0/router_0 | Buffering flit 1 at output 62.
3 | network_0/router_0 | Sending flit 1 to channel at output 62.
4 | network_0/network_0_fchan_30 | Beginning channel traversal for flit 1 with delay 1.
4 | network_0/network_0_fchan_30 | Completed channel traversal for flit 1.
5 | network_0/router_31 | Received flit 1 from channel at input 32.
5 | network_0/router_31 | Adding flit 1 to VC 1 at input 32 (state: idle, empty).
5 | network_0/router_31/buf_32/vc_1 | Changing state from idle to routing.
5 | network_0/router_31 | Beginning routing for VC 1 at input 32 (front: 1).
5 | network_0/router_31 | Completed routing for VC 1 at input 32 (front: 1).
5 | network_0/router_31/buf_32/vc_1 | Changing state from routing to vc_alloc.
5 | network_0/router_31 | Beginning VC allocation for VC 1 at input 32 (front: 1).
5 | network_0/router_31 |   Requesting VC 0 at output 27 (in_pri: 0, out_pri: 0).
5 | network_0/router_31 |   Requesting VC 1 at output 27 (in_pri: 0, out_pri: 0).
5 | network_0/router_31/vc_allocator | Input requests = [ 7 -> [ 86@0 ]  11 -> [ 114@0 ]  12 -> [ 106@0 ]  27 -> [ 76@0 ]  28 -> [ 116@0 ]  30 -> [ 84@0 ]  38 -> [ 88@0 ]  50 -> [ 65@0 ]  52 -> [ 82@0 ]  59 -> [ 65@0 ]  65 -> [ 54@0 55@0 ]  72 -> [ 119@0 ]  88 -> [ 103@0 ]  110 -> [ 81@0 ]  118 -> [ 73@0 ]  ], output requests = [ 54 -> [ 65@0 ]  55 -> [ 65@0 ]  65 -> [ 50@0 59@0 ]  73 -> [ 118@0 ]  76 -> [ 27@0 ]  81 -> [ 110@0 ]  82 -> [ 52@0 ]  84 -> [ 30@0 ]  86 -> [ 7@0 ]  88 -> [ 38@0 ]  103 -> [ 88@0 ]  106 -> [ 12@0 ]  114 -> [ 11@0 ]  116 -> [ 28@0 ]  119 -> [ 72@0 ]  ].
5 | network_0/router_31/vc_allocator | Input grants = [ 7 -> 86  11 -> 114  12 -> 106  27 -> 76  28 -> 116  30 -> 84  38 -> 88  50 -> 65  52 -> 82  65 -> 54  72 -> 119  88 -> 103  110 -> 81  118 -> 73  ], output grants = [ 54 -> 65  65 -> 50  73 -> 118  76 -> 27  81 -> 110  82 -> 52  84 -> 30  86 -> 7  88 -> 38  103 -> 88  106 -> 12  114 -> 11  116 -> 28  119 -> 72  ].
5 | network_0/router_31 | Assigning VC 0 at output 27 to VC 1 at input 32.
5 | network_0/router_31 | Completed VC allocation for VC 1 at input 32 (front: 1).
5 | network_0/router_31 |   Acquiring assigned VC 0 at output 27.
5 | network_0/router_31/buf_32/vc_1 | Changing state from vc_alloc to active.
5 | network_0/router_31 | Beginning switch allocation for VC 1 at input 32 (front: 1).
5 | network_0/router_31 |   Requesting output 27.0 (non-spec, pri: 0).
5 | network_0/router_31/sw_allocator | Input requests = [ 3 -> [ 43@0 ]  5 -> [ 57@0 ]  6 -> [ 53@0 ]  13 -> [ 38@0 ]  14 -> [ 58@0 ]  15 -> [ 42@0 ]  19 -> [ 44@0 ]  25 -> [ 32@0 ]  26 -> [ 41@0 ]  32 -> [ 27@0 ]  36 -> [ 59@0 ]  44 -> [ 51@0 ]  55 -> [ 40@0 ]  59 -> [ 36@0 ]  ], output requests = [ 27 -> [ 32@0 ]  32 -> [ 25@0 ]  36 -> [ 59@0 ]  38 -> [ 13@0 ]  40 -> [ 55@0 ]  41 -> [ 26@0 ]  42 -> [ 15@0 ]  43 -> [ 3@0 ]  44 -> [ 19@0 ]  51 -> [ 44@0 ]  53 -> [ 6@0 ]  57 -> [ 5@0 ]  58 -> [ 14@0 ]  59 -> [ 36@0 ]  ].
5 | network_0/router_31/sw_allocator | Input grants = [ 3 -> 43  5 -> 57  6 -> 53  13 -> 38  14 -> 58  15 -> 42  19 -> 44  25 -> 32  26 -> 41  32 -> 27  36 -> 59  44 -> 51  55 -> 40  59 -> 36  ], output grants = [ 27 -> 32  32 -> 25  36 -> 59  38 -> 13  40 -> 55  41 -> 26  42 -> 15  43 -> 3  44 -> 19  51 -> 44  53 -> 6  57 -> 5  58 -> 14  59 -> 36  ].
5 | network_0/router_31 | Assigning output 27.0 to VC 1 at input 32.0.
5 | network_0/router_31 | Completed switch allocation for VC 1 at input 32 (front: 1).
5 | network_0/router_31 |   Scheduling switch connection from input 32.0 to output 27.0.
5 | network_0/router_31 | Beginning crossbar traversal for flit 1 from input 32.0 to output 27.0.
5 | network_0/router_31 | Completed crossbar traversal for flit 1 from input 32.0 to output 27.0.
5 | network_0/router_31 | Buffering flit 1 at output 27.
5 | network_0/router_31 | Sending flit 1 to channel at output 27.
6 | network_0/network_0_fchan_egress1019 | Beginning channel traversal for flit 1 with delay 1.
6 | network_0/network_0_fchan_egress1019 | Completed channel traversal for flit 1.
7 | node1019 | Ejecting flit 1 (packet 1) from VC 0.
7 | node1019 | Injecting credit for VC 0 into subnet 0.
7 | node1019 | Retiring flit 1 (packet 1, src = 4, dest = 1019, hops = 2, flat = 7).
7 | node1019 | Retiring packet 1 (plat = 7, nlat = 7, frag = 0, src = 4, dest = 1019).
Class 0:
Packet latency average = 8.57894
	minimum = 6
	maximum = 28
Network latency average = 8.57894
	minimum = 6
	maximum = 28
Slowest packet = 187375
Flit latency average = 8.57894
	minimum = 6
	maximum = 28
Slowest flit = 187375
Fragmentation average = 0
	minimum = 0
	maximum = 0
Injected packet rate average = 0.199937
	minimum = 0.153 (at node 554)
	maximum = 0.246 (at node 112)
Accepted packet rate average = 0.198225
	minimum = 0.152 (at node 469)
	maximum = 0.244 (at node 911)
Injected flit rate average = 0.199937
	minimum = 0.153 (at node 554)
	maximum = 0.246 (at node 112)
Accepted flit rate average= 0.198225
	minimum = 0.152 (at node 469)
	maximum = 0.244 (at node 911)
Injected packet length average = 1
Accepted packet length average = 1
Total in-flight flits = 1753 (0 measured)
latency change    = 1
throughput change = 1
Class 0:
Packet latency average = 8.57466
	minimum = 6
	maximum = 30
Network latency average = 8.57466
	minimum = 6
	maximum = 30
Slowest packet = 234005
Flit latency average = 8.57466
	minimum = 6
	maximum = 30
Slowest flit = 234005
Fragmentation average = 0
	minimum = 0
	maximum = 0
Injected packet rate average = 0.199959
	minimum = 0.1615 (at node 534)
	maximum = 0.228 (at node 417)
Accepted packet rate average = 0.199121
	minimum = 0.161 (at node 489)
	maximum = 0.2275 (at node 350)
Injected flit rate average = 0.199959
	minimum = 0.1615 (at node 534)
	maximum = 0.228 (at node 417)
Accepted flit rate average= 0.199121
	minimum = 0.161 (at node 489)
	maximum = 0.2275 (at node 350)
Injected packet length average = 1
Accepted packet length average = 1
Total in-flight flits = 1717 (0 measured)
latency change    = 0.000498851
throughput change = 0.00449977
Class 0:
Packet latency average = 8.57677
	minimum = 6
	maximum = 28
Network latency average = 8.57677
	minimum = 6
	maximum = 28
Slowest packet = 523716
Flit latency average = 8.57677
	minimum = 6
	maximum = 28
Slowest flit = 523716
Fragmentation average = 0
	minimum = 0
	maximum = 0
Injected packet rate average = 0.199725
	minimum = 0.167 (at node 498)
	maximum = 0.242 (at node 216)
Accepted packet rate average = 0.19959
	minimum = 0.164 (at node 252)
	maximum = 0.239 (at node 629)
Injected flit rate average = 0.199725
	minimum = 0.167 (at node 498)
	maximum = 0.242 (at node 216)
Accepted flit rate average= 0.19959
	minimum = 0.164 (at node 252)
	maximum = 0.239 (at node 629)
Injected packet length average = 1
Accepted packet length average = 1
Total in-flight flits = 1855 (0 measured)
latency change    = 0.000246375
throughput change = 0.00235101
Warmed up ...Time used is 3000 cycles
Class 0:
Packet latency average = 8.58361
	minimum = 6
	maximum = 30
Network latency average = 8.58361
	minimum = 6
	maximum = 30
Slowest packet = 782030
Flit latency average = 8.58549
	minimum = 6
	maximum = 30
Slowest flit = 782030
Fragmentation average = 0
	minimum = 0
	maximum = 0
Injected packet rate average = 0.200829
	minimum = 0.16 (at node 530)
	maximum = 0.237 (at node 663)
Accepted packet rate average = 0.20097
	minimum = 0.16 (at node 493)
	maximum = 0.238 (at node 360)
Injected flit rate average = 0.200829
	minimum = 0.16 (at node 530)
	maximum = 0.237 (at node 663)
Accepted flit rate average= 0.20097
	minimum = 0.16 (at node 493)
	maximum = 0.238 (at node 360)
Injected packet length average = 1
Accepted packet length average = 1
Total in-flight flits = 1711 (1711 measured)
latency change    = 0.000796866
throughput change = 0.00686612
Class 0:
Packet latency average = 8.5721
	minimum = 6
	maximum = 30
Network latency average = 8.5721
	minimum = 6
	maximum = 30
Slowest packet = 782030
Flit latency average = 8.57309
	minimum = 6
	maximum = 30
Slowest flit = 782030
Fragmentation average = 0
	minimum = 0
	maximum = 0
Injected packet rate average = 0.200411
	minimum = 0.1755 (at node 1)
	maximum = 0.2265 (at node 1010)
Accepted packet rate average = 0.200454
	minimum = 0.175 (at node 1022)
	maximum = 0.226 (at node 13)
Injected flit rate average = 0.200411
	minimum = 0.1755 (at node 1)
	maximum = 0.2265 (at node 1010)
Accepted flit rate average= 0.200454
	minimum = 0.175 (at node 1022)
	maximum = 0.226 (at node 13)
Injected packet length average = 1
Accepted packet length average = 1
Total in-flight flits = 1768 (1768 measured)
latency change    = 0.00134355
throughput change = 0.00257473
Class 0:
Packet latency average = 8.56976
	minimum = 6
	maximum = 30
Network latency average = 8.56976
	minimum = 6
	maximum = 30
Slowest packet = 782030
Flit latency average = 8.57043
	minimum = 6
	maximum = 30
Slowest flit = 782030
Fragmentation average = 0
	minimum = 0
	maximum = 0
Injected packet rate average = 0.200178
	minimum = 0.178333 (at node 784)
	maximum = 0.223667 (at node 1013)
Accepted packet rate average = 0.200228
	minimum = 0.18 (at node 239)
	maximum = 0.223667 (at node 10)
Injected flit rate average = 0.200178
	minimum = 0.178333 (at node 784)
	maximum = 0.223667 (at node 1013)
Accepted flit rate average= 0.200228
	minimum = 0.18 (at node 239)
	maximum = 0.223667 (at node 10)
Injected packet length average = 1
Accepted packet length average = 1
Total in-flight flits = 1702 (1702 measured)
latency change    = 0.000272173
throughput change = 0.00112746
Draining all recorded packets ...
Draining remaining packets ...
Time taken is 6030 cycles
====== Overall Traffic Statistics ======
====== Traffic class 0 ======
Packet latency average = 8.56994 (1 samples)
	minimum = 6 (1 samples)
	maximum = 30 (1 samples)
Network latency average = 8.56994 (1 samples)
	minimum = 6 (1 samples)
	maximum = 30 (1 samples)
Flit latency average = 8.57037 (1 samples)
	minimum = 6 (1 samples)
	maximum = 30 (1 samples)
Fragmentation average = 0 (1 samples)
	minimum = 0 (1 samples)
	maximum = 0 (1 samples)
Injected packet rate average = 0.200178 (1 samples)
	minimum = 0.178333 (1 samples)
	maximum = 0.223667 (1 samples)
Accepted packet rate average = 0.200228 (1 samples)
	minimum = 0.18 (1 samples)
	maximum = 0.223667 (1 samples)
Injected flit rate average = 0.200178 (1 samples)
	minimum = 0.178333 (1 samples)
	maximum = 0.223667 (1 samples)
Accepted flit rate average = 0.200228 (1 samples)
	minimum = 0.18 (1 samples)
	maximum = 0.223667 (1 samples)
Injected packet size average = 1 (1 samples)
Accepted packet size average = 1 (1 samples)
Hops average = 2.84537 (1 samples)
Total run time 5503.05
