BEGIN Configuration File: ../../booksim2/src/examples/flatflyconfig
// $Id$

// Copyright (c) 2007-2015, Trustees of The Leland Stanford Junior University
// All rights reserved.
//
// Redistribution and use in source and binary forms, with or without
// modification, are permitted provided that the following conditions are met:
//
// Redistributions of source code must retain the above copyright notice, this
// list of conditions and the following disclaimer.
// Redistributions in binary form must reproduce the above copyright notice,
// this list of conditions and the following disclaimer in the documentation
// and/or other materials provided with the distribution.
//
// THIS SOFTWARE IS PROVIDED BY THE COPYRIGHT HOLDERS AND CONTRIBUTORS "AS IS"
// AND ANY EXPRESS OR IMPLIED WARRANTIES, INCLUDING, BUT NOT LIMITED TO, THE
// IMPLIED WARRANTIES OF MERCHANTABILITY AND FITNESS FOR A PARTICULAR PURPOSE
// ARE DISCLAIMED. IN NO EVENT SHALL THE COPYRIGHT OWNER OR CONTRIBUTORS BE
// LIABLE FOR ANY DIRECT, INDIRECT, INCIDENTAL, SPECIAL, EXEMPLARY, OR
// CONSEQUENTIAL DAMAGES (INCLUDING, BUT NOT LIMITED TO, PROCUREMENT OF
// SUBSTITUTE GOODS OR SERVICES; LOSS OF USE, DATA, OR PROFITS; OR BUSINESS
// INTERRUPTION) HOWEVER CAUSED AND ON ANY THEORY OF LIABILITY, WHETHER IN
// CONTRACT, STRICT LIABILITY, OR TORT (INCLUDING NEGLIGENCE OR OTHERWISE)
// ARISING IN ANY WAY OUT OF THE USE OF THIS SOFTWARE, EVEN IF ADVISED OF THE
// POSSIBILITY OF SUCH DAMAGE.

//A flattened butterfly configurate file with many tweaks from the
//default settings. 


// Flow control
// Total number of VCs must match the above assignments
num_vcs     = 2;
vc_buf_size = 16;

wait_for_tail_credit = 0;

//
// Router architectureq
//
vc_allocator = islip; 
sw_allocator = islip;
alloc_iters  = 3;

credit_delay   = 0;
routing_delay  = 1;
vc_alloc_delay = 1;
sw_alloc_delay = 1;
st_final_delay = 1;

input_speedup     = 1;
output_speedup    = 1;
internal_speedup  = 1.6;

//
// Traffic
//

warmup_periods = 3;

sample_period  = 1000;  

sim_count          = 1;

traffic       = bitrev;


// Flatfly 
//
// #node = k^(n+1)
//
// x, y, specifies the arrangement of routers in x and y dim
// xr, yr specifiies the arayment of clients in a router
//
topology = flatfly;
subnets = 1;

c  = 16;
k  = 16;
n  = 1;

x  = 16;
y  = 1;
xr = 16;
yr = 1;

use_noc_latency = 0;

//
// Routing
//

routing_function = ugal;

//1: batch mode, 0: injection mode
use_read_write = 0;

//for injection mode
packet_size = 1;
injection_rate = 0.1;

//for batch mode
read_request_size=1;
write_request_size=1;
read_reply_size=1;
write_reply_size=1;

read_request_begin_vc  = 0;
read_request_end_vc    = 3;
write_reply_begin_vc   = 4;
write_reply_end_vc     = 7;
read_reply_begin_vc    = 4;
read_reply_end_vc      = 7;
write_request_begin_vc = 0;
write_request_end_vc   = 3;

//latency: drains all packet, throughput:no drain?
sim_type = latency;

watch_out = -;;END Configuration File: ../../booksim2/src/examples/flatflyconfig
OVERRIDE Parameter: routing_function=ugal
OVERRIDE Parameter: traffic=uniform
OVERRIDE Parameter: injection_rate={0.8}
OVERRIDE Parameter: c=32
OVERRIDE Parameter: k=32
OVERRIDE Parameter: x=32
OVERRIDE Parameter: xr=32
OVERRIDE Parameter: sim_type=latency
OVERRIDE Parameter: seed=1
 Flat Bufferfly 
 k = 32 n = 1 c = 32
 each switch - total radix =  63
 # of switches = 32
 # of channels = 992
 # of nodes ( size of network ) = 1024
0 | node1 | Enqueuing flit 1 (packet 1) at time 0.
0 | traffic_manager | Finding output VC for flit 1:
0 | traffic_manager |   Selected output VC 0.
0 | node1 | Injecting flit 1 into subnet 0 at time 0 with priority 0.
1 | network_0/network_0_fchan_ingress1 | Beginning channel traversal for flit 1 with delay 1.
1 | network_0/network_0_fchan_ingress1 | Completed channel traversal for flit 1.
2 | network_0/router_0 | Received flit 1 from channel at input 1.
2 | network_0/router_0 | Adding flit 1 to VC 0 at input 1 (state: idle, empty).
2 | network_0/router_0/buf_1/vc_0 | Changing state from idle to routing.
2 | network_0/router_0 | Beginning routing for VC 0 at input 1 (front: 1).
2 | network_0/router_0 | Completed routing for VC 0 at input 1 (front: 1).
2 | network_0/router_0 |  MIN tmp_out_port: 412 | network_0/router_0 |  NONMIN tmp_out_port: 44
2 | network_0/router_0/buf_1/vc_0 | Changing state from routing to vc_alloc.
2 | network_0/router_0 | Beginning VC allocation for VC 0 at input 1 (front: 1).
2 | network_0/router_0 |   Requesting VC 1 at output 41 (in_pri: 0, out_pri: 0).
2 | network_0/router_0/vc_allocator | Input requests = [ 0 -> [ 95@0 ]  2 -> [ 83@0 ]  4 -> [ 91@0 ]  6 -> [ 79@0 ]  8 -> [ 113@0 ]  10 -> [ 69@0 ]  12 -> [ 87@0 ]  14 -> [ 107@0 ]  16 -> [ 73@0 ]  18 -> [ 75@0 ]  20 -> [ 113@0 ]  22 -> [ 95@0 ]  24 -> [ 121@0 ]  26 -> [ 101@0 ]  30 -> [ 89@0 ]  32 -> [ 111@0 ]  34 -> [ 71@0 ]  36 -> [ 101@0 ]  38 -> [ 75@0 ]  40 -> [ 117@0 ]  42 -> [ 87@0 ]  46 -> [ 103@0 ]  52 -> [ 67@0 ]  56 -> [ 85@0 ]  58 -> [ 79@0 ]  ], output requests = [ 67 -> [ 52@0 ]  69 -> [ 10@0 ]  71 -> [ 34@0 ]  73 -> [ 16@0 ]  75 -> [ 18@0 38@0 ]  79 -> [ 6@0 58@0 ]  83 -> [ 2@0 ]  85 -> [ 56@0 ]  87 -> [ 12@0 42@0 ]  89 -> [ 30@0 ]  91 -> [ 4@0 ]  95 -> [ 0@0 22@0 ]  101 -> [ 26@0 36@0 ]  103 -> [ 46@0 ]  107 -> [ 14@0 ]  111 -> [ 32@0 ]  113 -> [ 8@0 20@0 ]  117 -> [ 40@0 ]  121 -> [ 24@0 ]  ].
2 | network_0/router_0/vc_allocator | Input grants = [ 0 -> 95  2 -> 83  4 -> 91  6 -> 79  8 -> 113  10 -> 69  12 -> 87  14 -> 107  16 -> 73  18 -> 75  24 -> 121  26 -> 101  30 -> 89  32 -> 111  34 -> 71  40 -> 117  46 -> 103  52 -> 67  56 -> 85  ], output grants = [ 67 -> 52  69 -> 10  71 -> 34  73 -> 16  75 -> 18  79 -> 6  83 -> 2  85 -> 56  87 -> 12  89 -> 30  91 -> 4  95 -> 0  101 -> 26  103 -> 46  107 -> 14  111 -> 32  113 -> 8  117 -> 40  121 -> 24  ].
2 | network_0/router_0 | Assigning VC 1 at output 41 to VC 0 at input 1.
2 | network_0/router_0 | Completed VC allocation for VC 0 at input 1 (front: 1).
2 | network_0/router_0 |   Acquiring assigned VC 1 at output 41.
2 | network_0/router_0/buf_1/vc_0 | Changing state from vc_alloc to active.
2 | network_0/router_0 | Beginning switch allocation for VC 0 at input 1 (front: 1).
2 | network_0/router_0 |   Requesting output 41.0 (non-spec, pri: 0).
2 | network_0/router_0/sw_allocator | Input requests = [ 0 -> [ 47@0 ]  1 -> [ 41@0 ]  2 -> [ 45@0 ]  3 -> [ 39@0 ]  4 -> [ 56@0 ]  5 -> [ 34@0 ]  6 -> [ 43@0 ]  7 -> [ 53@0 ]  8 -> [ 36@0 ]  9 -> [ 37@0 ]  12 -> [ 60@0 ]  13 -> [ 50@0 ]  15 -> [ 44@0 ]  16 -> [ 55@0 ]  17 -> [ 35@0 ]  20 -> [ 58@0 ]  23 -> [ 51@0 ]  26 -> [ 33@0 ]  28 -> [ 42@0 ]  ], output requests = [ 33 -> [ 26@0 ]  34 -> [ 5@0 ]  35 -> [ 17@0 ]  36 -> [ 8@0 ]  37 -> [ 9@0 ]  39 -> [ 3@0 ]  41 -> [ 1@0 ]  42 -> [ 28@0 ]  43 -> [ 6@0 ]  44 -> [ 15@0 ]  45 -> [ 2@0 ]  47 -> [ 0@0 ]  50 -> [ 13@0 ]  51 -> [ 23@0 ]  53 -> [ 7@0 ]  55 -> [ 16@0 ]  56 -> [ 4@0 ]  58 -> [ 20@0 ]  60 -> [ 12@0 ]  ].
2 | network_0/router_0/sw_allocator | Input grants = [ 0 -> 47  1 -> 41  2 -> 45  3 -> 39  4 -> 56  5 -> 34  6 -> 43  7 -> 53  8 -> 36  9 -> 37  12 -> 60  13 -> 50  15 -> 44  16 -> 55  17 -> 35  20 -> 58  23 -> 51  26 -> 33  28 -> 42  ], output grants = [ 33 -> 26  34 -> 5  35 -> 17  36 -> 8  37 -> 9  39 -> 3  41 -> 1  42 -> 28  43 -> 6  44 -> 15  45 -> 2  47 -> 0  50 -> 13  51 -> 23  53 -> 7  55 -> 16  56 -> 4  58 -> 20  60 -> 12  ].
2 | network_0/router_0 | Assigning output 41.0 to VC 0 at input 1.0.
2 | network_0/router_0 | Completed switch allocation for VC 0 at input 1 (front: 1).
2 | network_0/router_0 |   Scheduling switch connection from input 1.0 to output 41.0.
2 | network_0/router_0 | Beginning crossbar traversal for flit 1 from input 1.0 to output 41.0.
2 | network_0/router_0 | Completed crossbar traversal for flit 1 from input 1.0 to output 41.0.
2 | network_0/router_0 | Buffering flit 1 at output 41.
2 | network_0/router_0 | Sending flit 1 to channel at output 41.
3 | network_0/network_0_fchan_9 | Beginning channel traversal for flit 1 with delay 1.
3 | network_0/network_0_fchan_9 | Completed channel traversal for flit 1.
4 | network_0/router_10 | Received flit 1 from channel at input 32.
4 | network_0/router_10 | Adding flit 1 to VC 1 at input 32 (state: idle, empty).
4 | network_0/router_10/buf_32/vc_1 | Changing state from idle to routing.
4 | network_0/router_10 | Beginning routing for VC 1 at input 32 (front: 1).
4 | network_0/router_10 | Completed routing for VC 1 at input 32 (front: 1).
4 | network_0/router_10/buf_32/vc_1 | Changing state from routing to vc_alloc.
4 | network_0/router_10 | Beginning VC allocation for VC 1 at input 32 (front: 1).
4 | network_0/router_10 |   Requesting VC 0 at output 25 (in_pri: 0, out_pri: 0).
4 | network_0/router_10 |   Requesting VC 1 at output 25 (in_pri: 0, out_pri: 0).
4 | network_0/router_10/vc_allocator | Input requests = [ 2 -> [ 79@0 ]  7 -> [ 101@0 ]  8 -> [ 119@0 ]  11 -> [ 88@0 ]  13 -> [ 113@0 ]  15 -> [ 107@0 ]  16 -> [ 117@0 ]  18 -> [ 89@0 ]  22 -> [ 117@0 ]  23 -> [ 81@0 ]  24 -> [ 117@0 ]  26 -> [ 115@0 ]  28 -> [ 71@0 ]  29 -> [ 99@0 ]  30 -> [ 83@0 ]  32 -> [ 117@0 ]  33 -> [ 125@0 ]  36 -> [ 91@0 ]  37 -> [ 99@0 ]  38 -> [ 46@0 47@0 ]  40 -> [ 83@0 ]  42 -> [ 121@0 ]  44 -> [ 77@0 ]  46 -> [ 119@0 ]  49 -> [ 113@0 ]  50 -> [ 99@0 ]  52 -> [ 75@0 ]  55 -> [ 95@0 ]  56 -> [ 88@0 ]  57 -> [ 65@0 ]  59 -> [ 36@0 37@0 ]  60 -> [ 101@0 ]  62 -> [ 77@0 ]  65 -> [ 50@0 51@0 ]  69 -> [ 40@0 41@0 ]  71 -> [ 26@0 27@0 ]  73 -> [ 60@0 61@0 ]  75 -> [ 28@0 29@0 ]  79 -> [ 34@0 35@0 ]  83 -> [ 16@0 17@0 ]  85 -> [ 18@0 19@0 ]  91 -> [ 58@0 59@0 ]  93 -> [ 50@0 51@0 ]  95 -> [ 34@0 35@0 ]  101 -> [ 2@0 3@0 ]  103 -> [ 60@0 61@0 ]  107 -> [ 10@0 11@0 ]  109 -> [ 0@0 1@0 ]  111 -> [ 6@0 7@0 ]  113 -> [ 40@0 41@0 ]  115 -> [ 8@0 9@0 ]  117 -> [ 34@0 35@0 ]  119 -> [ 16@0 17@0 ]  125 -> [ 56@0 57@0 ]  ], output requests = [ 0 -> [ 109@0 ]  1 -> [ 109@0 ]  2 -> [ 101@0 ]  3 -> [ 101@0 ]  6 -> [ 111@0 ]  7 -> [ 111@0 ]  8 -> [ 115@0 ]  9 -> [ 115@0 ]  10 -> [ 107@0 ]  11 -> [ 107@0 ]  16 -> [ 83@0 119@0 ]  17 -> [ 83@0 119@0 ]  18 -> [ 85@0 ]  19 -> [ 85@0 ]  26 -> [ 71@0 ]  27 -> [ 71@0 ]  28 -> [ 75@0 ]  29 -> [ 75@0 ]  34 -> [ 79@0 95@0 117@0 ]  35 -> [ 79@0 95@0 117@0 ]  36 -> [ 59@0 ]  37 -> [ 59@0 ]  40 -> [ 69@0 113@0 ]  41 -> [ 69@0 113@0 ]  46 -> [ 38@0 ]  47 -> [ 38@0 ]  50 -> [ 65@0 93@0 ]  51 -> [ 65@0 93@0 ]  56 -> [ 125@0 ]  57 -> [ 125@0 ]  58 -> [ 91@0 ]  59 -> [ 91@0 ]  60 -> [ 73@0 103@0 ]  61 -> [ 73@0 103@0 ]  65 -> [ 57@0 ]  71 -> [ 28@0 ]  75 -> [ 52@0 ]  77 -> [ 44@0 62@0 ]  79 -> [ 2@0 ]  81 -> [ 23@0 ]  83 -> [ 30@0 40@0 ]  88 -> [ 11@0 56@0 ]  89 -> [ 18@0 ]  91 -> [ 36@0 ]  95 -> [ 55@0 ]  99 -> [ 29@0 37@0 50@0 ]  101 -> [ 7@0 60@0 ]  107 -> [ 15@0 ]  113 -> [ 13@0 49@0 ]  115 -> [ 26@0 ]  117 -> [ 16@0 22@0 24@0 32@0 ]  119 -> [ 8@0 46@0 ]  121 -> [ 42@0 ]  125 -> [ 33@0 ]  ].
4 | network_0/router_10/vc_allocator | Input grants = [ 2 -> 79  8 -> 119  11 -> 88  15 -> 107  18 -> 89  23 -> 81  24 -> 117  26 -> 115  28 -> 71  29 -> 99  30 -> 83  33 -> 125  36 -> 91  38 -> 46  42 -> 121  44 -> 77  49 -> 113  52 -> 75  55 -> 95  57 -> 65  59 -> 36  60 -> 101  65 -> 50  69 -> 40  71 -> 26  73 -> 60  75 -> 28  79 -> 34  83 -> 16  85 -> 18  91 -> 58  101 -> 2  107 -> 10  109 -> 0  111 -> 6  115 -> 8  125 -> 56  ], output grants = [ 0 -> 109  2 -> 101  6 -> 111  8 -> 115  10 -> 107  16 -> 83  18 -> 85  26 -> 71  28 -> 75  34 -> 79  36 -> 59  40 -> 69  46 -> 38  50 -> 65  56 -> 125  58 -> 91  60 -> 73  65 -> 57  71 -> 28  75 -> 52  77 -> 44  79 -> 2  81 -> 23  83 -> 30  88 -> 11  89 -> 18  91 -> 36  95 -> 55  99 -> 29  101 -> 60  107 -> 15  113 -> 49  115 -> 26  117 -> 24  119 -> 8  121 -> 42  125 -> 33  ].
4 | network_0/router_10 | Assigning VC 0 at output 25 to VC 1 at input 32.
4 | network_0/router_10 | Completed VC allocation for VC 1 at input 32 (front: 1).
4 | network_0/router_10 |   Acquiring assigned VC 0 at output 25.
4 | network_0/router_10/buf_32/vc_1 | Changing state from vc_alloc to active.
4 | network_0/router_10 | Beginning switch allocation for VC 1 at input 32 (front: 1).
4 | network_0/router_10 |   Requesting output 25.0 (non-spec, pri: 0).
4 | network_0/router_10/sw_allocator | Input requests = [ 1 -> [ 39@0 ]  4 -> [ 59@0 ]  5 -> [ 44@0 ]  7 -> [ 53@0 ]  9 -> [ 44@0 ]  11 -> [ 40@0 ]  12 -> [ 58@0 ]  13 -> [ 57@0 ]  14 -> [ 35@0 49@0 ]  15 -> [ 41@0 ]  16 -> [ 62@0 ]  18 -> [ 45@0 ]  19 -> [ 23@0 ]  21 -> [ 60@0 ]  22 -> [ 38@0 ]  24 -> [ 56@0 ]  25 -> [ 47@0 ]  26 -> [ 37@0 ]  27 -> [ 47@0 ]  28 -> [ 32@0 ]  29 -> [ 18@0 ]  30 -> [ 50@0 ]  31 -> [ 59@0 ]  32 -> [ 25@0 ]  34 -> [ 20@0 ]  35 -> [ 13@0 ]  36 -> [ 30@0 ]  37 -> [ 14@0 ]  39 -> [ 17@0 ]  41 -> [ 8@0 ]  42 -> [ 9@0 ]  45 -> [ 29@0 ]  50 -> [ 1@0 ]  53 -> [ 5@0 ]  54 -> [ 0@0 ]  55 -> [ 3@0 ]  57 -> [ 4@0 ]  62 -> [ 28@0 ]  ], output requests = [ 0 -> [ 54@0 ]  1 -> [ 50@0 ]  3 -> [ 55@0 ]  4 -> [ 57@0 ]  5 -> [ 53@0 ]  8 -> [ 41@0 ]  9 -> [ 42@0 ]  13 -> [ 35@0 ]  14 -> [ 37@0 ]  17 -> [ 39@0 ]  18 -> [ 29@0 ]  20 -> [ 34@0 ]  23 -> [ 19@0 ]  25 -> [ 32@0 ]  28 -> [ 62@0 ]  29 -> [ 45@0 ]  30 -> [ 36@0 ]  32 -> [ 28@0 ]  35 -> [ 14@0 ]  37 -> [ 26@0 ]  38 -> [ 22@0 ]  39 -> [ 1@0 ]  40 -> [ 11@0 ]  41 -> [ 15@0 ]  44 -> [ 5@0 9@0 ]  45 -> [ 18@0 ]  47 -> [ 25@0 27@0 ]  49 -> [ 14@0 ]  50 -> [ 30@0 ]  53 -> [ 7@0 ]  56 -> [ 24@0 ]  57 -> [ 13@0 ]  58 -> [ 12@0 ]  59 -> [ 4@0 31@0 ]  60 -> [ 21@0 ]  62 -> [ 16@0 ]  ].
4 | network_0/router_10/sw_allocator | Input grants = [ 1 -> 39  5 -> 44  7 -> 53  11 -> 40  12 -> 58  13 -> 57  14 -> 49  15 -> 41  16 -> 62  18 -> 45  19 -> 23  21 -> 60  22 -> 38  24 -> 56  25 -> 47  26 -> 37  28 -> 32  29 -> 18  30 -> 50  31 -> 59  32 -> 25  34 -> 20  35 -> 13  36 -> 30  37 -> 14  39 -> 17  41 -> 8  42 -> 9  45 -> 29  50 -> 1  53 -> 5  54 -> 0  55 -> 3  57 -> 4  62 -> 28  ], output grants = [ 0 -> 54  1 -> 50  3 -> 55  4 -> 57  5 -> 53  8 -> 41  9 -> 42  13 -> 35  14 -> 37  17 -> 39  18 -> 29  20 -> 34  23 -> 19  25 -> 32  28 -> 62  29 -> 45  30 -> 36  32 -> 28  37 -> 26  38 -> 22  39 -> 1  40 -> 11  41 -> 15  44 -> 5  45 -> 18  47 -> 25  49 -> 14  50 -> 30  53 -> 7  56 -> 24  57 -> 13  58 -> 12  59 -> 31  60 -> 21  62 -> 16  ].
4 | network_0/router_10 | Assigning output 25.0 to VC 1 at input 32.0.
4 | network_0/router_10 | Completed switch allocation for VC 1 at input 32 (front: 1).
4 | network_0/router_10 |   Scheduling switch connection from input 32.0 to output 25.0.
4 | network_0/router_10 | Beginning crossbar traversal for flit 1 from input 32.0 to output 25.0.
4 | network_0/router_10 | Completed crossbar traversal for flit 1 from input 32.0 to output 25.0.
4 | network_0/router_10 | Buffering flit 1 at output 25.
4 | network_0/router_10 | Sending flit 1 to channel at output 25.
5 | network_0/network_0_fchan_egress345 | Beginning channel traversal for flit 1 with delay 1.
5 | network_0/network_0_fchan_egress345 | Completed channel traversal for flit 1.
6 | node345 | Ejecting flit 1 (packet 1) from VC 0.
6 | node345 | Injecting credit for VC 0 into subnet 0.
6 | node345 | Retiring flit 1 (packet 1, src = 1, dest = 345, hops = 2, flat = 6).
6 | node345 | Retiring packet 1 (plat = 6, nlat = 6, frag = 0, src = 1, dest = 345).
Class 0:
Packet latency average = 11.5273
	minimum = 4
	maximum = 48
Network latency average = 11.5273
	minimum = 4
	maximum = 48
Slowest packet = 250322
Flit latency average = 11.5273
	minimum = 4
	maximum = 48
Slowest flit = 250322
Fragmentation average = 0
	minimum = 0
	maximum = 0
Injected packet rate average = 0.800301
	minimum = 0.764 (at node 251)
	maximum = 0.846 (at node 905)
Accepted packet rate average = 0.791063
	minimum = 0.695 (at node 835)
	maximum = 0.886 (at node 705)
Injected flit rate average = 0.800301
	minimum = 0.764 (at node 251)
	maximum = 0.846 (at node 905)
Accepted flit rate average= 0.791063
	minimum = 0.695 (at node 835)
	maximum = 0.886 (at node 705)
Injected packet length average = 1
Accepted packet length average = 1
Total in-flight flits = 9460 (0 measured)
latency change    = 1
throughput change = 1
Class 0:
Packet latency average = 11.5582
	minimum = 4
	maximum = 49
Network latency average = 11.5582
	minimum = 4
	maximum = 49
Slowest packet = 1154549
Flit latency average = 11.5582
	minimum = 4
	maximum = 49
Slowest flit = 1154549
Fragmentation average = 0
	minimum = 0
	maximum = 0
Injected packet rate average = 0.79981
	minimum = 0.7725 (at node 532)
	maximum = 0.8305 (at node 699)
Accepted packet rate average = 0.795204
	minimum = 0.7355 (at node 651)
	maximum = 0.851 (at node 705)
Injected flit rate average = 0.79981
	minimum = 0.7725 (at node 532)
	maximum = 0.8305 (at node 699)
Accepted flit rate average= 0.795204
	minimum = 0.7355 (at node 651)
	maximum = 0.851 (at node 705)
Injected packet length average = 1
Accepted packet length average = 1
Total in-flight flits = 9434 (0 measured)
latency change    = 0.00267377
throughput change = 0.00520761
Class 0:
Packet latency average = 11.5926
	minimum = 4
	maximum = 44
Network latency average = 11.5926
	minimum = 4
	maximum = 44
Slowest packet = 2400820
Flit latency average = 11.5926
	minimum = 4
	maximum = 44
Slowest flit = 2400820
Fragmentation average = 0
	minimum = 0
	maximum = 0
Injected packet rate average = 0.799234
	minimum = 0.754 (at node 951)
	maximum = 0.834 (at node 216)
Accepted packet rate average = 0.798914
	minimum = 0.695 (at node 216)
	maximum = 0.886 (at node 93)
Injected flit rate average = 0.799234
	minimum = 0.754 (at node 951)
	maximum = 0.834 (at node 216)
Accepted flit rate average= 0.798914
	minimum = 0.695 (at node 216)
	maximum = 0.886 (at node 93)
Injected packet length average = 1
Accepted packet length average = 1
Total in-flight flits = 9762 (0 measured)
latency change    = 0.00296643
throughput change = 0.00464437
Warmed up ...Time used is 3000 cycles
Class 0:
Packet latency average = 11.5932
	minimum = 4
	maximum = 45
Network latency average = 11.5932
	minimum = 4
	maximum = 45
Slowest packet = 2898659
Flit latency average = 11.6127
	minimum = 4
	maximum = 45
Slowest flit = 2898659
Fragmentation average = 0
	minimum = 0
	maximum = 0
Injected packet rate average = 0.799596
	minimum = 0.758 (at node 951)
	maximum = 0.839 (at node 484)
Accepted packet rate average = 0.799802
	minimum = 0.697 (at node 117)
	maximum = 0.887 (at node 198)
Injected flit rate average = 0.799596
	minimum = 0.758 (at node 951)
	maximum = 0.839 (at node 484)
Accepted flit rate average= 0.799802
	minimum = 0.697 (at node 117)
	maximum = 0.887 (at node 198)
Injected packet length average = 1
Accepted packet length average = 1
Total in-flight flits = 9551 (9551 measured)
latency change    = 5.12164e-05
throughput change = 0.00110989
Class 0:
Packet latency average = 11.5922
	minimum = 4
	maximum = 45
Network latency average = 11.5922
	minimum = 4
	maximum = 45
Slowest packet = 2898659
Flit latency average = 11.602
	minimum = 4
	maximum = 45
Slowest flit = 2898659
Fragmentation average = 0
	minimum = 0
	maximum = 0
Injected packet rate average = 0.799782
	minimum = 0.771 (at node 316)
	maximum = 0.837 (at node 39)
Accepted packet rate average = 0.799916
	minimum = 0.737 (at node 728)
	maximum = 0.874 (at node 957)
Injected flit rate average = 0.799782
	minimum = 0.771 (at node 316)
	maximum = 0.837 (at node 39)
Accepted flit rate average= 0.799916
	minimum = 0.737 (at node 728)
	maximum = 0.874 (at node 957)
Injected packet length average = 1
Accepted packet length average = 1
Total in-flight flits = 9487 (9487 measured)
latency change    = 8.36335e-05
throughput change = 0.000142837
Class 0:
Packet latency average = 11.5983
	minimum = 4
	maximum = 45
Network latency average = 11.5983
	minimum = 4
	maximum = 45
Slowest packet = 2898659
Flit latency average = 11.6047
	minimum = 4
	maximum = 45
Slowest flit = 2898659
Fragmentation average = 0
	minimum = 0
	maximum = 0
Injected packet rate average = 0.800037
	minimum = 0.773333 (at node 194)
	maximum = 0.821333 (at node 10)
Accepted packet rate average = 0.800096
	minimum = 0.749333 (at node 728)
	maximum = 0.856 (at node 908)
Injected flit rate average = 0.800037
	minimum = 0.773333 (at node 194)
	maximum = 0.821333 (at node 10)
Accepted flit rate average= 0.800096
	minimum = 0.749333 (at node 728)
	maximum = 0.856 (at node 908)
Injected packet length average = 1
Accepted packet length average = 1
Total in-flight flits = 9582 (9582 measured)
latency change    = 0.000518003
throughput change = 0.000224989
Draining all recorded packets ...
Draining remaining packets ...
Time taken is 6058 cycles
====== Overall Traffic Statistics ======
====== Traffic class 0 ======
Packet latency average = 11.6039 (1 samples)
	minimum = 4 (1 samples)
	maximum = 45 (1 samples)
Network latency average = 11.6039 (1 samples)
	minimum = 4 (1 samples)
	maximum = 45 (1 samples)
Flit latency average = 11.609 (1 samples)
	minimum = 4 (1 samples)
	maximum = 45 (1 samples)
Fragmentation average = 0 (1 samples)
	minimum = 0 (1 samples)
	maximum = 0 (1 samples)
Injected packet rate average = 0.800037 (1 samples)
	minimum = 0.773333 (1 samples)
	maximum = 0.821333 (1 samples)
Accepted packet rate average = 0.800096 (1 samples)
	minimum = 0.749333 (1 samples)
	maximum = 0.856 (1 samples)
Injected flit rate average = 0.800037 (1 samples)
	minimum = 0.773333 (1 samples)
	maximum = 0.821333 (1 samples)
Accepted flit rate average = 0.800096 (1 samples)
	minimum = 0.749333 (1 samples)
	maximum = 0.856 (1 samples)
Injected packet size average = 1 (1 samples)
Accepted packet size average = 1 (1 samples)
Hops average = 2.06116 (1 samples)
Total run time 5706.04
