BEGIN Configuration File: ../../booksim2/src/examples/flatflyconfig
// $Id$

// Copyright (c) 2007-2015, Trustees of The Leland Stanford Junior University
// All rights reserved.
//
// Redistribution and use in source and binary forms, with or without
// modification, are permitted provided that the following conditions are met:
//
// Redistributions of source code must retain the above copyright notice, this
// list of conditions and the following disclaimer.
// Redistributions in binary form must reproduce the above copyright notice,
// this list of conditions and the following disclaimer in the documentation
// and/or other materials provided with the distribution.
//
// THIS SOFTWARE IS PROVIDED BY THE COPYRIGHT HOLDERS AND CONTRIBUTORS "AS IS"
// AND ANY EXPRESS OR IMPLIED WARRANTIES, INCLUDING, BUT NOT LIMITED TO, THE
// IMPLIED WARRANTIES OF MERCHANTABILITY AND FITNESS FOR A PARTICULAR PURPOSE
// ARE DISCLAIMED. IN NO EVENT SHALL THE COPYRIGHT OWNER OR CONTRIBUTORS BE
// LIABLE FOR ANY DIRECT, INDIRECT, INCIDENTAL, SPECIAL, EXEMPLARY, OR
// CONSEQUENTIAL DAMAGES (INCLUDING, BUT NOT LIMITED TO, PROCUREMENT OF
// SUBSTITUTE GOODS OR SERVICES; LOSS OF USE, DATA, OR PROFITS; OR BUSINESS
// INTERRUPTION) HOWEVER CAUSED AND ON ANY THEORY OF LIABILITY, WHETHER IN
// CONTRACT, STRICT LIABILITY, OR TORT (INCLUDING NEGLIGENCE OR OTHERWISE)
// ARISING IN ANY WAY OUT OF THE USE OF THIS SOFTWARE, EVEN IF ADVISED OF THE
// POSSIBILITY OF SUCH DAMAGE.

//A flattened butterfly configurate file with many tweaks from the
//default settings. 


// Flow control
// Total number of VCs must match the above assignments
num_vcs     = 2;
vc_buf_size = 16;

wait_for_tail_credit = 0;

//
// Router architectureq
//
vc_allocator = islip; 
sw_allocator = islip;
alloc_iters  = 3;

credit_delay   = 0;
routing_delay  = 1;
vc_alloc_delay = 1;
sw_alloc_delay = 1;
st_final_delay = 1;

input_speedup     = 1;
output_speedup    = 1;
internal_speedup  = 1.6;

//
// Traffic
//

warmup_periods = 3;

sample_period  = 1000;  

sim_count          = 1;

traffic       = bitrev;


// Flatfly 
//
// #node = k^(n+1)
//
// x, y, specifies the arrangement of routers in x and y dim
// xr, yr specifiies the arayment of clients in a router
//
topology = flatfly;
subnets = 1;

c  = 16;
k  = 16;
n  = 1;

x  = 16;
y  = 1;
xr = 16;
yr = 1;

use_noc_latency = 0;

//
// Routing
//

routing_function = ugal;

//1: batch mode, 0: injection mode
use_read_write = 0;

//for injection mode
packet_size = 1;
injection_rate = 0.1;

//for batch mode
read_request_size=1;
write_request_size=1;
read_reply_size=1;
write_reply_size=1;

read_request_begin_vc  = 0;
read_request_end_vc    = 3;
write_reply_begin_vc   = 4;
write_reply_end_vc     = 7;
read_reply_begin_vc    = 4;
read_reply_end_vc      = 7;
write_request_begin_vc = 0;
write_request_end_vc   = 3;

//latency: drains all packet, throughput:no drain?
sim_type = latency;

watch_out = -;;END Configuration File: ../../booksim2/src/examples/flatflyconfig
OVERRIDE Parameter: routing_function=ugal
OVERRIDE Parameter: traffic=uniform
OVERRIDE Parameter: injection_rate={0.7}
OVERRIDE Parameter: c=32
OVERRIDE Parameter: k=32
OVERRIDE Parameter: x=32
OVERRIDE Parameter: xr=32
OVERRIDE Parameter: sim_type=latency
OVERRIDE Parameter: seed=1
 Flat Bufferfly 
 k = 32 n = 1 c = 32
 each switch - total radix =  63
 # of switches = 32
 # of channels = 992
 # of nodes ( size of network ) = 1024
0 | node1 | Enqueuing flit 1 (packet 1) at time 0.
0 | traffic_manager | Finding output VC for flit 1:
0 | traffic_manager |   Selected output VC 0.
0 | node1 | Injecting flit 1 into subnet 0 at time 0 with priority 0.
1 | network_0/network_0_fchan_ingress1 | Beginning channel traversal for flit 1 with delay 1.
1 | network_0/network_0_fchan_ingress1 | Completed channel traversal for flit 1.
2 | network_0/router_0 | Received flit 1 from channel at input 1.
2 | network_0/router_0 | Adding flit 1 to VC 0 at input 1 (state: idle, empty).
2 | network_0/router_0/buf_1/vc_0 | Changing state from idle to routing.
2 | network_0/router_0 | Beginning routing for VC 0 at input 1 (front: 1).
2 | network_0/router_0 | Completed routing for VC 0 at input 1 (front: 1).
2 | network_0/router_0 |  MIN tmp_out_port: 412 | network_0/router_0 |  NONMIN tmp_out_port: 36
2 | network_0/router_0/buf_1/vc_0 | Changing state from routing to vc_alloc.
2 | network_0/router_0 | Beginning VC allocation for VC 0 at input 1 (front: 1).
2 | network_0/router_0 |   Requesting VC 1 at output 41 (in_pri: 0, out_pri: 0).
2 | network_0/router_0/vc_allocator | Input requests = [ 0 -> [ 95@0 ]  2 -> [ 83@0 ]  4 -> [ 91@0 ]  6 -> [ 79@0 ]  8 -> [ 113@0 ]  10 -> [ 69@0 ]  12 -> [ 87@0 ]  14 -> [ 107@0 ]  16 -> [ 73@0 ]  18 -> [ 75@0 ]  20 -> [ 113@0 ]  22 -> [ 95@0 ]  24 -> [ 121@0 ]  26 -> [ 101@0 ]  30 -> [ 89@0 ]  32 -> [ 111@0 ]  34 -> [ 71@0 ]  38 -> [ 101@0 ]  40 -> [ 75@0 ]  42 -> [ 117@0 ]  52 -> [ 87@0 ]  56 -> [ 103@0 ]  58 -> [ 67@0 ]  ], output requests = [ 67 -> [ 58@0 ]  69 -> [ 10@0 ]  71 -> [ 34@0 ]  73 -> [ 16@0 ]  75 -> [ 18@0 40@0 ]  79 -> [ 6@0 ]  83 -> [ 2@0 ]  87 -> [ 12@0 52@0 ]  89 -> [ 30@0 ]  91 -> [ 4@0 ]  95 -> [ 0@0 22@0 ]  101 -> [ 26@0 38@0 ]  103 -> [ 56@0 ]  107 -> [ 14@0 ]  111 -> [ 32@0 ]  113 -> [ 8@0 20@0 ]  117 -> [ 42@0 ]  121 -> [ 24@0 ]  ].
2 | network_0/router_0/vc_allocator | Input grants = [ 0 -> 95  2 -> 83  4 -> 91  6 -> 79  8 -> 113  10 -> 69  12 -> 87  14 -> 107  16 -> 73  18 -> 75  24 -> 121  26 -> 101  30 -> 89  32 -> 111  34 -> 71  42 -> 117  56 -> 103  58 -> 67  ], output grants = [ 67 -> 58  69 -> 10  71 -> 34  73 -> 16  75 -> 18  79 -> 6  83 -> 2  87 -> 12  89 -> 30  91 -> 4  95 -> 0  101 -> 26  103 -> 56  107 -> 14  111 -> 32  113 -> 8  117 -> 42  121 -> 24  ].
2 | network_0/router_0 | Assigning VC 1 at output 41 to VC 0 at input 1.
2 | network_0/router_0 | Completed VC allocation for VC 0 at input 1 (front: 1).
2 | network_0/router_0 |   Acquiring assigned VC 1 at output 41.
2 | network_0/router_0/buf_1/vc_0 | Changing state from vc_alloc to active.
2 | network_0/router_0 | Beginning switch allocation for VC 0 at input 1 (front: 1).
2 | network_0/router_0 |   Requesting output 41.0 (non-spec, pri: 0).
2 | network_0/router_0/sw_allocator | Input requests = [ 0 -> [ 47@0 ]  1 -> [ 41@0 ]  2 -> [ 45@0 ]  3 -> [ 39@0 ]  4 -> [ 56@0 ]  5 -> [ 34@0 ]  6 -> [ 43@0 ]  7 -> [ 53@0 ]  8 -> [ 36@0 ]  9 -> [ 37@0 ]  12 -> [ 60@0 ]  13 -> [ 50@0 ]  15 -> [ 44@0 ]  16 -> [ 55@0 ]  17 -> [ 35@0 ]  21 -> [ 58@0 ]  28 -> [ 51@0 ]  29 -> [ 33@0 ]  ], output requests = [ 33 -> [ 29@0 ]  34 -> [ 5@0 ]  35 -> [ 17@0 ]  36 -> [ 8@0 ]  37 -> [ 9@0 ]  39 -> [ 3@0 ]  41 -> [ 1@0 ]  43 -> [ 6@0 ]  44 -> [ 15@0 ]  45 -> [ 2@0 ]  47 -> [ 0@0 ]  50 -> [ 13@0 ]  51 -> [ 28@0 ]  53 -> [ 7@0 ]  55 -> [ 16@0 ]  56 -> [ 4@0 ]  58 -> [ 21@0 ]  60 -> [ 12@0 ]  ].
2 | network_0/router_0/sw_allocator | Input grants = [ 0 -> 47  1 -> 41  2 -> 45  3 -> 39  4 -> 56  5 -> 34  6 -> 43  7 -> 53  8 -> 36  9 -> 37  12 -> 60  13 -> 50  15 -> 44  16 -> 55  17 -> 35  21 -> 58  28 -> 51  29 -> 33  ], output grants = [ 33 -> 29  34 -> 5  35 -> 17  36 -> 8  37 -> 9  39 -> 3  41 -> 1  43 -> 6  44 -> 15  45 -> 2  47 -> 0  50 -> 13  51 -> 28  53 -> 7  55 -> 16  56 -> 4  58 -> 21  60 -> 12  ].
2 | network_0/router_0 | Assigning output 41.0 to VC 0 at input 1.0.
2 | network_0/router_0 | Completed switch allocation for VC 0 at input 1 (front: 1).
2 | network_0/router_0 |   Scheduling switch connection from input 1.0 to output 41.0.
2 | network_0/router_0 | Beginning crossbar traversal for flit 1 from input 1.0 to output 41.0.
2 | network_0/router_0 | Completed crossbar traversal for flit 1 from input 1.0 to output 41.0.
2 | network_0/router_0 | Buffering flit 1 at output 41.
2 | network_0/router_0 | Sending flit 1 to channel at output 41.
3 | network_0/network_0_fchan_9 | Beginning channel traversal for flit 1 with delay 1.
3 | network_0/network_0_fchan_9 | Completed channel traversal for flit 1.
4 | network_0/router_10 | Received flit 1 from channel at input 32.
4 | network_0/router_10 | Adding flit 1 to VC 1 at input 32 (state: idle, empty).
4 | network_0/router_10/buf_32/vc_1 | Changing state from idle to routing.
4 | network_0/router_10 | Beginning routing for VC 1 at input 32 (front: 1).
4 | network_0/router_10 | Completed routing for VC 1 at input 32 (front: 1).
4 | network_0/router_10/buf_32/vc_1 | Changing state from routing to vc_alloc.
4 | network_0/router_10 | Beginning VC allocation for VC 1 at input 32 (front: 1).
4 | network_0/router_10 |   Requesting VC 0 at output 25 (in_pri: 0, out_pri: 0).
4 | network_0/router_10 |   Requesting VC 1 at output 25 (in_pri: 0, out_pri: 0).
4 | network_0/router_10/vc_allocator | Input requests = [ 2 -> [ 93@0 ]  7 -> [ 89@0 ]  8 -> [ 92@0 ]  11 -> [ 65@0 ]  14 -> [ 121@0 ]  18 -> [ 97@0 ]  22 -> [ 89@0 ]  24 -> [ 125@0 ]  26 -> [ 95@0 ]  28 -> [ 113@0 ]  30 -> [ 72@0 ]  32 -> [ 119@0 ]  37 -> [ 83@0 ]  38 -> [ 125@0 ]  40 -> [ 97@0 ]  41 -> [ 81@0 ]  42 -> [ 70@0 ]  44 -> [ 87@0 ]  45 -> [ 73@0 ]  47 -> [ 109@0 ]  49 -> [ 125@0 ]  50 -> [ 67@0 ]  51 -> [ 92@0 ]  52 -> [ 112@0 ]  56 -> [ 91@0 ]  58 -> [ 81@0 ]  59 -> [ 105@0 ]  60 -> [ 81@0 ]  62 -> [ 103@0 ]  65 -> [ 50@0 51@0 ]  69 -> [ 40@0 41@0 ]  71 -> [ 6@0 7@0 ]  73 -> [ 20@0 21@0 ]  75 -> [ 50@0 51@0 ]  81 -> [ 34@0 35@0 ]  85 -> [ 8@0 9@0 ]  87 -> [ 18@0 19@0 ]  95 -> [ 58@0 59@0 ]  97 -> [ 50@0 51@0 ]  99 -> [ 34@0 35@0 ]  107 -> [ 2@0 3@0 ]  111 -> [ 60@0 61@0 ]  115 -> [ 10@0 11@0 ]  117 -> [ 6@0 7@0 ]  121 -> [ 40@0 41@0 ]  123 -> [ 8@0 9@0 ]  125 -> [ 34@0 35@0 ]  ], output requests = [ 2 -> [ 107@0 ]  3 -> [ 107@0 ]  6 -> [ 71@0 117@0 ]  7 -> [ 71@0 117@0 ]  8 -> [ 85@0 123@0 ]  9 -> [ 85@0 123@0 ]  10 -> [ 115@0 ]  11 -> [ 115@0 ]  18 -> [ 87@0 ]  19 -> [ 87@0 ]  20 -> [ 73@0 ]  21 -> [ 73@0 ]  34 -> [ 81@0 99@0 125@0 ]  35 -> [ 81@0 99@0 125@0 ]  40 -> [ 69@0 121@0 ]  41 -> [ 69@0 121@0 ]  50 -> [ 65@0 75@0 97@0 ]  51 -> [ 65@0 75@0 97@0 ]  58 -> [ 95@0 ]  59 -> [ 95@0 ]  60 -> [ 111@0 ]  61 -> [ 111@0 ]  65 -> [ 11@0 ]  67 -> [ 50@0 ]  70 -> [ 42@0 ]  72 -> [ 30@0 ]  73 -> [ 45@0 ]  81 -> [ 41@0 58@0 60@0 ]  83 -> [ 37@0 ]  87 -> [ 44@0 ]  89 -> [ 7@0 22@0 ]  91 -> [ 56@0 ]  92 -> [ 8@0 51@0 ]  93 -> [ 2@0 ]  95 -> [ 26@0 ]  97 -> [ 18@0 40@0 ]  103 -> [ 62@0 ]  105 -> [ 59@0 ]  109 -> [ 47@0 ]  112 -> [ 52@0 ]  113 -> [ 28@0 ]  119 -> [ 32@0 ]  121 -> [ 14@0 ]  125 -> [ 24@0 38@0 49@0 ]  ].
4 | network_0/router_10/vc_allocator | Input grants = [ 2 -> 93  7 -> 89  8 -> 92  11 -> 65  14 -> 121  18 -> 97  24 -> 125  26 -> 95  28 -> 113  30 -> 72  32 -> 119  37 -> 83  41 -> 81  42 -> 70  44 -> 87  45 -> 73  47 -> 109  50 -> 67  52 -> 112  56 -> 91  59 -> 105  62 -> 103  65 -> 50  69 -> 40  71 -> 6  73 -> 20  81 -> 34  85 -> 8  87 -> 18  95 -> 58  107 -> 2  111 -> 60  115 -> 10  ], output grants = [ 2 -> 107  6 -> 71  8 -> 85  10 -> 115  18 -> 87  20 -> 73  34 -> 81  40 -> 69  50 -> 65  58 -> 95  60 -> 111  65 -> 11  67 -> 50  70 -> 42  72 -> 30  73 -> 45  81 -> 41  83 -> 37  87 -> 44  89 -> 7  91 -> 56  92 -> 8  93 -> 2  95 -> 26  97 -> 18  103 -> 62  105 -> 59  109 -> 47  112 -> 52  113 -> 28  119 -> 32  121 -> 14  125 -> 24  ].
4 | network_0/router_10 | Assigning VC 0 at output 25 to VC 1 at input 32.
4 | network_0/router_10 | Completed VC allocation for VC 1 at input 32 (front: 1).
4 | network_0/router_10 |   Acquiring assigned VC 0 at output 25.
4 | network_0/router_10/buf_32/vc_1 | Changing state from vc_alloc to active.
4 | network_0/router_10 | Beginning switch allocation for VC 1 at input 32 (front: 1).
4 | network_0/router_10 |   Requesting output 25.0 (non-spec, pri: 0).
4 | network_0/router_10/sw_allocator | Input requests = [ 1 -> [ 46@0 ]  3 -> [ 44@0 ]  4 -> [ 46@0 ]  5 -> [ 32@0 ]  7 -> [ 60@0 ]  9 -> [ 48@0 ]  12 -> [ 62@0 ]  13 -> [ 47@0 ]  14 -> [ 56@0 ]  15 -> [ 36@0 ]  16 -> [ 55@0 59@0 ]  18 -> [ 41@0 ]  20 -> [ 40@0 ]  21 -> [ 35@0 ]  22 -> [ 36@0 43@0 ]  23 -> [ 54@0 ]  25 -> [ 33@0 ]  26 -> [ 56@0 ]  28 -> [ 45@0 ]  29 -> [ 52@0 ]  31 -> [ 51@0 ]  32 -> [ 25@0 ]  34 -> [ 20@0 ]  35 -> [ 3@0 ]  36 -> [ 10@0 ]  40 -> [ 17@0 ]  42 -> [ 4@0 ]  43 -> [ 9@0 ]  47 -> [ 29@0 ]  53 -> [ 1@0 ]  55 -> [ 30@0 ]  57 -> [ 5@0 ]  ], output requests = [ 1 -> [ 53@0 ]  3 -> [ 35@0 ]  4 -> [ 42@0 ]  5 -> [ 57@0 ]  9 -> [ 43@0 ]  10 -> [ 36@0 ]  17 -> [ 40@0 ]  20 -> [ 34@0 ]  25 -> [ 32@0 ]  29 -> [ 47@0 ]  30 -> [ 55@0 ]  32 -> [ 5@0 ]  33 -> [ 25@0 ]  35 -> [ 21@0 ]  36 -> [ 15@0 22@0 ]  40 -> [ 20@0 ]  41 -> [ 18@0 ]  43 -> [ 22@0 ]  44 -> [ 3@0 ]  45 -> [ 28@0 ]  46 -> [ 1@0 4@0 ]  47 -> [ 13@0 ]  48 -> [ 9@0 ]  51 -> [ 31@0 ]  52 -> [ 29@0 ]  54 -> [ 23@0 ]  55 -> [ 16@0 ]  56 -> [ 14@0 26@0 ]  59 -> [ 16@0 ]  60 -> [ 7@0 ]  62 -> [ 12@0 ]  ].
4 | network_0/router_10/sw_allocator | Input grants = [ 1 -> 46  3 -> 44  5 -> 32  7 -> 60  9 -> 48  12 -> 62  13 -> 47  15 -> 36  16 -> 55  18 -> 41  20 -> 40  21 -> 35  22 -> 43  23 -> 54  25 -> 33  26 -> 56  28 -> 45  29 -> 52  31 -> 51  32 -> 25  34 -> 20  35 -> 3  36 -> 10  40 -> 17  42 -> 4  43 -> 9  47 -> 29  53 -> 1  55 -> 30  57 -> 5  ], output grants = [ 1 -> 53  3 -> 35  4 -> 42  5 -> 57  9 -> 43  10 -> 36  17 -> 40  20 -> 34  25 -> 32  29 -> 47  30 -> 55  32 -> 5  33 -> 25  35 -> 21  36 -> 15  40 -> 20  41 -> 18  43 -> 22  44 -> 3  45 -> 28  46 -> 1  47 -> 13  48 -> 9  51 -> 31  52 -> 29  54 -> 23  55 -> 16  56 -> 26  60 -> 7  62 -> 12  ].
4 | network_0/router_10 | Assigning output 25.0 to VC 1 at input 32.0.
4 | network_0/router_10 | Completed switch allocation for VC 1 at input 32 (front: 1).
4 | network_0/router_10 |   Scheduling switch connection from input 32.0 to output 25.0.
4 | network_0/router_10 | Beginning crossbar traversal for flit 1 from input 32.0 to output 25.0.
4 | network_0/router_10 | Completed crossbar traversal for flit 1 from input 32.0 to output 25.0.
4 | network_0/router_10 | Buffering flit 1 at output 25.
4 | network_0/router_10 | Sending flit 1 to channel at output 25.
5 | network_0/network_0_fchan_egress345 | Beginning channel traversal for flit 1 with delay 1.
5 | network_0/network_0_fchan_egress345 | Completed channel traversal for flit 1.
6 | node345 | Ejecting flit 1 (packet 1) from VC 0.
6 | node345 | Injecting credit for VC 0 into subnet 0.
6 | node345 | Retiring flit 1 (packet 1, src = 1, dest = 345, hops = 2, flat = 6).
6 | node345 | Retiring packet 1 (plat = 6, nlat = 6, frag = 0, src = 1, dest = 345).
Class 0:
Packet latency average = 9.05567
	minimum = 4
	maximum = 35
Network latency average = 9.05567
	minimum = 4
	maximum = 35
Slowest packet = 334419
Flit latency average = 9.05567
	minimum = 4
	maximum = 35
Slowest flit = 334419
Fragmentation average = 0
	minimum = 0
	maximum = 0
Injected packet rate average = 0.700374
	minimum = 0.66 (at node 635)
	maximum = 0.75 (at node 31)
Accepted packet rate average = 0.694023
	minimum = 0.625 (at node 172)
	maximum = 0.771 (at node 791)
Injected flit rate average = 0.700374
	minimum = 0.66 (at node 635)
	maximum = 0.75 (at node 31)
Accepted flit rate average= 0.694023
	minimum = 0.625 (at node 172)
	maximum = 0.771 (at node 791)
Injected packet length average = 1
Accepted packet length average = 1
Total in-flight flits = 6503 (0 measured)
latency change    = 1
throughput change = 1
Class 0:
Packet latency average = 9.05956
	minimum = 4
	maximum = 35
Network latency average = 9.05956
	minimum = 4
	maximum = 35
Slowest packet = 334419
Flit latency average = 9.05956
	minimum = 4
	maximum = 35
Slowest flit = 334419
Fragmentation average = 0
	minimum = 0
	maximum = 0
Injected packet rate average = 0.699951
	minimum = 0.669 (at node 573)
	maximum = 0.7335 (at node 763)
Accepted packet rate average = 0.696747
	minimum = 0.6455 (at node 172)
	maximum = 0.758 (at node 119)
Injected flit rate average = 0.699951
	minimum = 0.669 (at node 573)
	maximum = 0.7335 (at node 763)
Accepted flit rate average= 0.696747
	minimum = 0.6455 (at node 172)
	maximum = 0.758 (at node 119)
Injected packet length average = 1
Accepted packet length average = 1
Total in-flight flits = 6562 (0 measured)
latency change    = 0.000429202
throughput change = 0.00390907
Class 0:
Packet latency average = 9.03715
	minimum = 4
	maximum = 34
Network latency average = 9.03715
	minimum = 4
	maximum = 34
Slowest packet = 1457899
Flit latency average = 9.03715
	minimum = 4
	maximum = 34
Slowest flit = 1457899
Fragmentation average = 0
	minimum = 0
	maximum = 0
Injected packet rate average = 0.69919
	minimum = 0.652 (at node 913)
	maximum = 0.735 (at node 470)
Accepted packet rate average = 0.699285
	minimum = 0.611 (at node 207)
	maximum = 0.774 (at node 494)
Injected flit rate average = 0.69919
	minimum = 0.652 (at node 913)
	maximum = 0.735 (at node 470)
Accepted flit rate average= 0.699285
	minimum = 0.611 (at node 207)
	maximum = 0.774 (at node 494)
Injected packet length average = 1
Accepted packet length average = 1
Total in-flight flits = 6465 (0 measured)
latency change    = 0.00247902
throughput change = 0.00362954
Warmed up ...Time used is 3000 cycles
Class 0:
Packet latency average = 9.04218
	minimum = 4
	maximum = 33
Network latency average = 9.04218
	minimum = 4
	maximum = 33
Slowest packet = 2347712
Flit latency average = 9.04923
	minimum = 4
	maximum = 33
Slowest flit = 2347712
Fragmentation average = 0
	minimum = 0
	maximum = 0
Injected packet rate average = 0.699159
	minimum = 0.653 (at node 453)
	maximum = 0.745 (at node 645)
Accepted packet rate average = 0.699133
	minimum = 0.618 (at node 375)
	maximum = 0.776 (at node 72)
Injected flit rate average = 0.699159
	minimum = 0.653 (at node 453)
	maximum = 0.745 (at node 645)
Accepted flit rate average= 0.699133
	minimum = 0.618 (at node 375)
	maximum = 0.776 (at node 72)
Injected packet length average = 1
Accepted packet length average = 1
Total in-flight flits = 6492 (6492 measured)
latency change    = 0.000555422
throughput change = 0.000217904
Class 0:
Packet latency average = 9.04805
	minimum = 4
	maximum = 34
Network latency average = 9.04805
	minimum = 4
	maximum = 34
Slowest packet = 3344693
Flit latency average = 9.05156
	minimum = 4
	maximum = 34
Slowest flit = 3344693
Fragmentation average = 0
	minimum = 0
	maximum = 0
Injected packet rate average = 0.699429
	minimum = 0.666 (at node 34)
	maximum = 0.7385 (at node 39)
Accepted packet rate average = 0.699361
	minimum = 0.639 (at node 375)
	maximum = 0.7715 (at node 72)
Injected flit rate average = 0.699429
	minimum = 0.666 (at node 34)
	maximum = 0.7385 (at node 39)
Accepted flit rate average= 0.699361
	minimum = 0.639 (at node 375)
	maximum = 0.7715 (at node 72)
Injected packet length average = 1
Accepted packet length average = 1
Total in-flight flits = 6603 (6603 measured)
latency change    = 0.000649687
throughput change = 0.000326749
Class 0:
Packet latency average = 9.04915
	minimum = 4
	maximum = 34
Network latency average = 9.04915
	minimum = 4
	maximum = 34
Slowest packet = 3344693
Flit latency average = 9.05148
	minimum = 4
	maximum = 34
Slowest flit = 3344693
Fragmentation average = 0
	minimum = 0
	maximum = 0
Injected packet rate average = 0.699717
	minimum = 0.671333 (at node 194)
	maximum = 0.722333 (at node 520)
Accepted packet rate average = 0.699705
	minimum = 0.653 (at node 375)
	maximum = 0.742333 (at node 908)
Injected flit rate average = 0.699717
	minimum = 0.671333 (at node 194)
	maximum = 0.722333 (at node 520)
Accepted flit rate average= 0.699705
	minimum = 0.653 (at node 375)
	maximum = 0.742333 (at node 908)
Injected packet length average = 1
Accepted packet length average = 1
Total in-flight flits = 6501 (6501 measured)
latency change    = 0.000121173
throughput change = 0.000491743
Draining all recorded packets ...
Draining remaining packets ...
Time taken is 6044 cycles
====== Overall Traffic Statistics ======
====== Traffic class 0 ======
Packet latency average = 9.05154 (1 samples)
	minimum = 4 (1 samples)
	maximum = 34 (1 samples)
Network latency average = 9.05154 (1 samples)
	minimum = 4 (1 samples)
	maximum = 34 (1 samples)
Flit latency average = 9.05401 (1 samples)
	minimum = 4 (1 samples)
	maximum = 34 (1 samples)
Fragmentation average = 0 (1 samples)
	minimum = 0 (1 samples)
	maximum = 0 (1 samples)
Injected packet rate average = 0.699717 (1 samples)
	minimum = 0.671333 (1 samples)
	maximum = 0.722333 (1 samples)
Accepted packet rate average = 0.699705 (1 samples)
	minimum = 0.653 (1 samples)
	maximum = 0.742333 (1 samples)
Injected flit rate average = 0.699717 (1 samples)
	minimum = 0.671333 (1 samples)
	maximum = 0.722333 (1 samples)
Accepted flit rate average = 0.699705 (1 samples)
	minimum = 0.653 (1 samples)
	maximum = 0.742333 (1 samples)
Injected packet size average = 1 (1 samples)
Accepted packet size average = 1 (1 samples)
Hops average = 2.08166 (1 samples)
Total run time 5691.76
