BEGIN Configuration File: ../../booksim2/src/examples/flatflyconfig
// $Id$

// Copyright (c) 2007-2015, Trustees of The Leland Stanford Junior University
// All rights reserved.
//
// Redistribution and use in source and binary forms, with or without
// modification, are permitted provided that the following conditions are met:
//
// Redistributions of source code must retain the above copyright notice, this
// list of conditions and the following disclaimer.
// Redistributions in binary form must reproduce the above copyright notice,
// this list of conditions and the following disclaimer in the documentation
// and/or other materials provided with the distribution.
//
// THIS SOFTWARE IS PROVIDED BY THE COPYRIGHT HOLDERS AND CONTRIBUTORS "AS IS"
// AND ANY EXPRESS OR IMPLIED WARRANTIES, INCLUDING, BUT NOT LIMITED TO, THE
// IMPLIED WARRANTIES OF MERCHANTABILITY AND FITNESS FOR A PARTICULAR PURPOSE
// ARE DISCLAIMED. IN NO EVENT SHALL THE COPYRIGHT OWNER OR CONTRIBUTORS BE
// LIABLE FOR ANY DIRECT, INDIRECT, INCIDENTAL, SPECIAL, EXEMPLARY, OR
// CONSEQUENTIAL DAMAGES (INCLUDING, BUT NOT LIMITED TO, PROCUREMENT OF
// SUBSTITUTE GOODS OR SERVICES; LOSS OF USE, DATA, OR PROFITS; OR BUSINESS
// INTERRUPTION) HOWEVER CAUSED AND ON ANY THEORY OF LIABILITY, WHETHER IN
// CONTRACT, STRICT LIABILITY, OR TORT (INCLUDING NEGLIGENCE OR OTHERWISE)
// ARISING IN ANY WAY OUT OF THE USE OF THIS SOFTWARE, EVEN IF ADVISED OF THE
// POSSIBILITY OF SUCH DAMAGE.

//A flattened butterfly configurate file with many tweaks from the
//default settings. 


// Flow control
// Total number of VCs must match the above assignments
num_vcs     = 2;
vc_buf_size = 16;

wait_for_tail_credit = 0;

//
// Router architectureq
//
vc_allocator = islip; 
sw_allocator = islip;
alloc_iters  = 3;

credit_delay   = 0;
routing_delay  = 1;
vc_alloc_delay = 1;
sw_alloc_delay = 1;
st_final_delay = 1;

input_speedup     = 1;
output_speedup    = 1;
internal_speedup  = 1.6;

//
// Traffic
//

warmup_periods = 3;

sample_period  = 1000;  

sim_count          = 1;

traffic       = bitrev;


// Flatfly 
//
// #node = k^(n+1)
//
// x, y, specifies the arrangement of routers in x and y dim
// xr, yr specifiies the arayment of clients in a router
//
topology = flatfly;
subnets = 1;

c  = 16;
k  = 16;
n  = 1;

x  = 16;
y  = 1;
xr = 16;
yr = 1;

use_noc_latency = 0;

//
// Routing
//

routing_function = ugal;

//1: batch mode, 0: injection mode
use_read_write = 0;

//for injection mode
packet_size = 1;
injection_rate = 0.1;

//for batch mode
read_request_size=1;
write_request_size=1;
read_reply_size=1;
write_reply_size=1;

read_request_begin_vc  = 0;
read_request_end_vc    = 3;
write_reply_begin_vc   = 4;
write_reply_end_vc     = 7;
read_reply_begin_vc    = 4;
read_reply_end_vc      = 7;
write_request_begin_vc = 0;
write_request_end_vc   = 3;

//latency: drains all packet, throughput:no drain?
sim_type = latency;

watch_out = -;;END Configuration File: ../../booksim2/src/examples/flatflyconfig
OVERRIDE Parameter: routing_function=ugal
OVERRIDE Parameter: traffic=bitcomp
OVERRIDE Parameter: injection_rate={0.5}
OVERRIDE Parameter: c=32
OVERRIDE Parameter: k=32
OVERRIDE Parameter: x=32
OVERRIDE Parameter: xr=32
OVERRIDE Parameter: sim_type=latency
OVERRIDE Parameter: seed=1
 Flat Bufferfly 
 k = 32 n = 1 c = 32
 each switch - total radix =  63
 # of switches = 32
 # of channels = 992
 # of nodes ( size of network ) = 1024
0 | node1 | Enqueuing flit 1 (packet 1) at time 0.
0 | traffic_manager | Finding output VC for flit 1:
0 | traffic_manager |   Selected output VC 0.
0 | node1 | Injecting flit 1 into subnet 0 at time 0 with priority 0.
1 | network_0/network_0_fchan_ingress1 | Beginning channel traversal for flit 1 with delay 1.
1 | network_0/network_0_fchan_ingress1 | Completed channel traversal for flit 1.
2 | network_0/router_0 | Received flit 1 from channel at input 1.
2 | network_0/router_0 | Adding flit 1 to VC 0 at input 1 (state: idle, empty).
2 | network_0/router_0/buf_1/vc_0 | Changing state from idle to routing.
2 | network_0/router_0 | Beginning routing for VC 0 at input 1 (front: 1).
2 | network_0/router_0 | Completed routing for VC 0 at input 1 (front: 1).
2 | network_0/router_0 |  MIN tmp_out_port: 622 | network_0/router_0 |  NONMIN tmp_out_port: 34
2 | network_0/router_0/buf_1/vc_0 | Changing state from routing to vc_alloc.
2 | network_0/router_0 | Beginning VC allocation for VC 0 at input 1 (front: 1).
2 | network_0/router_0 |   Requesting VC 1 at output 62 (in_pri: 0, out_pri: 0).
2 | network_0/router_0/vc_allocator | Input requests = [ 0 -> [ 125@0 ]  2 -> [ 125@0 ]  4 -> [ 125@0 ]  6 -> [ 125@0 ]  8 -> [ 125@0 ]  10 -> [ 125@0 ]  12 -> [ 125@0 ]  14 -> [ 125@0 ]  16 -> [ 125@0 ]  20 -> [ 125@0 ]  26 -> [ 125@0 ]  32 -> [ 125@0 ]  34 -> [ 125@0 ]  40 -> [ 125@0 ]  52 -> [ 125@0 ]  56 -> [ 125@0 ]  ], output requests = [ 125 -> [ 0@0 2@0 4@0 6@0 8@0 10@0 12@0 14@0 16@0 20@0 26@0 32@0 34@0 40@0 52@0 56@0 ]  ].
2 | network_0/router_0/vc_allocator | Input grants = [ 0 -> 125  ], output grants = [ 125 -> 0  ].
2 | network_0/router_0 | VC allocation failed for VC 0 at input 1.
2 | network_0/router_0 | Completed VC allocation for VC 0 at input 1 (front: 1).
2 | network_0/router_0 |   No output VC allocated.
3 | network_0/router_0 | Beginning VC allocation for VC 0 at input 1 (front: 1).
3 | network_0/router_0 |   Requesting VC 1 at output 62 (in_pri: 0, out_pri: 0).
3 | network_0/router_0/vc_allocator | Input requests = [ 1 -> [ 104@0 ]  2 -> [ 125@0 ]  3 -> [ 94@0 ]  4 -> [ 125@0 ]  5 -> [ 122@0 ]  6 -> [ 125@0 ]  7 -> [ 102@0 ]  8 -> [ 125@0 ]  9 -> [ 88@0 ]  10 -> [ 125@0 ]  11 -> [ 106@0 ]  12 -> [ 125@0 ]  13 -> [ 110@0 ]  14 -> [ 125@0 ]  15 -> [ 116@0 ]  16 -> [ 125@0 ]  17 -> [ 106@0 ]  18 -> [ 94@0 ]  20 -> [ 125@0 ]  22 -> [ 122@0 ]  24 -> [ 72@0 ]  26 -> [ 125@0 ]  27 -> [ 104@0 ]  28 -> [ 104@0 ]  32 -> [ 125@0 ]  34 -> [ 125@0 ]  36 -> [ 76@0 ]  40 -> [ 125@0 ]  42 -> [ 122@0 ]  44 -> [ 88@0 ]  50 -> [ 116@0 ]  52 -> [ 125@0 ]  53 -> [ 104@0 ]  54 -> [ 78@0 ]  56 -> [ 125@0 ]  58 -> [ 125@0 ]  ], output requests = [ 72 -> [ 24@0 ]  76 -> [ 36@0 ]  78 -> [ 54@0 ]  88 -> [ 9@0 44@0 ]  94 -> [ 3@0 18@0 ]  102 -> [ 7@0 ]  104 -> [ 1@0 27@0 28@0 53@0 ]  106 -> [ 11@0 17@0 ]  110 -> [ 13@0 ]  116 -> [ 15@0 50@0 ]  122 -> [ 5@0 22@0 42@0 ]  125 -> [ 2@0 4@0 6@0 8@0 10@0 12@0 14@0 16@0 20@0 26@0 32@0 34@0 40@0 52@0 56@0 58@0 ]  ].
3 | network_0/router_0/vc_allocator | Input grants = [ 1 -> 104  2 -> 125  3 -> 94  5 -> 122  7 -> 102  9 -> 88  11 -> 106  13 -> 110  15 -> 116  24 -> 72  36 -> 76  54 -> 78  ], output grants = [ 72 -> 24  76 -> 36  78 -> 54  88 -> 9  94 -> 3  102 -> 7  104 -> 1  106 -> 11  110 -> 13  116 -> 15  122 -> 5  125 -> 2  ].
3 | network_0/router_0 | Assigning VC 1 at output 62 to VC 0 at input 1.
3 | network_0/router_0 | Completed VC allocation for VC 0 at input 1 (front: 1).
3 | network_0/router_0 |   Acquiring assigned VC 1 at output 62.
3 | network_0/router_0/buf_1/vc_0 | Changing state from vc_alloc to active.
3 | network_0/router_0 | Beginning switch allocation for VC 0 at input 1 (front: 1).
3 | network_0/router_0 |   Requesting output 62.0 (non-spec, pri: 0).
3 | network_0/router_0/sw_allocator | Input requests = [ 0 -> [ 52@0 ]  1 -> [ 47@0 62@0 ]  2 -> [ 61@0 ]  3 -> [ 51@0 ]  4 -> [ 44@0 ]  5 -> [ 53@0 ]  6 -> [ 55@0 ]  7 -> [ 58@0 ]  12 -> [ 36@0 ]  18 -> [ 38@0 ]  27 -> [ 39@0 ]  ], output requests = [ 36 -> [ 12@0 ]  38 -> [ 18@0 ]  39 -> [ 27@0 ]  44 -> [ 4@0 ]  47 -> [ 1@0 ]  51 -> [ 3@0 ]  52 -> [ 0@0 ]  53 -> [ 5@0 ]  55 -> [ 6@0 ]  58 -> [ 7@0 ]  61 -> [ 2@0 ]  62 -> [ 1@0 ]  ].
3 | network_0/router_0/sw_allocator | Input grants = [ 0 -> 52  1 -> 47  2 -> 61  3 -> 51  4 -> 44  5 -> 53  6 -> 55  7 -> 58  12 -> 36  18 -> 38  27 -> 39  ], output grants = [ 36 -> 12  38 -> 18  39 -> 27  44 -> 4  47 -> 1  51 -> 3  52 -> 0  53 -> 5  55 -> 6  58 -> 7  61 -> 2  ].
3 | network_0/router_0 | Switch allocation failed for VC 0 at input 1: Granted to VC 1.
3 | network_0/router_0 | Completed switch allocation for VC 0 at input 1 (front: 1).
3 | network_0/router_0 |   No output port allocated.
3 | network_0/router_0 | Beginning switch allocation for VC 0 at input 1 (front: 1).
3 | network_0/router_0 |   Requesting output 62.0 (non-spec, pri: 0).
3 | network_0/router_0/sw_allocator | Input requests = [ 1 -> [ 62@0 ]  8 -> [ 53@0 ]  9 -> [ 47@0 ]  11 -> [ 61@0 ]  13 -> [ 52@0 ]  22 -> [ 44@0 ]  25 -> [ 58@0 ]  ], output requests = [ 44 -> [ 22@0 ]  47 -> [ 9@0 ]  52 -> [ 13@0 ]  53 -> [ 8@0 ]  58 -> [ 25@0 ]  61 -> [ 11@0 ]  62 -> [ 1@0 ]  ].
3 | network_0/router_0/sw_allocator | Input grants = [ 1 -> 62  8 -> 53  9 -> 47  11 -> 61  13 -> 52  22 -> 44  25 -> 58  ], output grants = [ 44 -> 22  47 -> 9  52 -> 13  53 -> 8  58 -> 25  61 -> 11  62 -> 1  ].
3 | network_0/router_0 | Assigning output 62.0 to VC 0 at input 1.0.
3 | network_0/router_0 | Completed switch allocation for VC 0 at input 1 (front: 1).
3 | network_0/router_0 |   Scheduling switch connection from input 1.0 to output 62.0.
3 | network_0/router_0 | Beginning crossbar traversal for flit 1 from input 1.0 to output 62.0.
3 | network_0/router_0 | Completed crossbar traversal for flit 1 from input 1.0 to output 62.0.
3 | network_0/router_0 | Buffering flit 1 at output 62.
3 | network_0/router_0 | Sending flit 1 to channel at output 62.
4 | network_0/network_0_fchan_30 | Beginning channel traversal for flit 1 with delay 1.
4 | network_0/network_0_fchan_30 | Completed channel traversal for flit 1.
5 | network_0/router_31 | Received flit 1 from channel at input 32.
5 | network_0/router_31 | Adding flit 1 to VC 1 at input 32 (state: idle, empty).
5 | network_0/router_31/buf_32/vc_1 | Changing state from idle to routing.
5 | network_0/router_31 | Beginning routing for VC 1 at input 32 (front: 1).
5 | network_0/router_31 | Completed routing for VC 1 at input 32 (front: 1).
5 | network_0/router_31/buf_32/vc_1 | Changing state from routing to vc_alloc.
5 | network_0/router_31 | Beginning VC allocation for VC 1 at input 32 (front: 1).
5 | network_0/router_31 |   Requesting VC 0 at output 30 (in_pri: 0, out_pri: 0).
5 | network_0/router_31 |   Requesting VC 1 at output 30 (in_pri: 0, out_pri: 0).
5 | network_0/router_31/vc_allocator | Input requests = [ 0 -> [ 96@0 ]  7 -> [ 104@0 ]  8 -> [ 65@0 ]  10 -> [ 102@0 ]  12 -> [ 94@0 ]  14 -> [ 65@0 ]  15 -> [ 104@0 ]  18 -> [ 65@0 ]  19 -> [ 65@0 ]  23 -> [ 76@0 ]  24 -> [ 65@0 ]  27 -> [ 100@0 ]  28 -> [ 68@0 ]  30 -> [ 110@0 ]  31 -> [ 65@0 ]  36 -> [ 65@0 ]  39 -> [ 65@0 ]  40 -> [ 65@0 ]  43 -> [ 65@0 ]  44 -> [ 88@0 ]  46 -> [ 122@0 ]  49 -> [ 120@0 ]  50 -> [ 65@0 ]  51 -> [ 78@0 ]  52 -> [ 65@0 ]  53 -> [ 68@0 ]  55 -> [ 100@0 ]  56 -> [ 110@0 ]  58 -> [ 94@0 ]  59 -> [ 65@0 ]  60 -> [ 65@0 ]  62 -> [ 65@0 ]  65 -> [ 60@0 61@0 ]  68 -> [ 123@0 ]  70 -> [ 121@0 ]  72 -> [ 119@0 ]  76 -> [ 115@0 ]  78 -> [ 113@0 ]  82 -> [ 109@0 ]  90 -> [ 101@0 ]  92 -> [ 99@0 ]  94 -> [ 97@0 ]  98 -> [ 93@0 ]  108 -> [ 83@0 ]  116 -> [ 75@0 ]  ], output requests = [ 60 -> [ 65@0 ]  61 -> [ 65@0 ]  65 -> [ 8@0 14@0 18@0 19@0 24@0 31@0 36@0 39@0 40@0 43@0 50@0 52@0 59@0 60@0 62@0 ]  68 -> [ 28@0 53@0 ]  75 -> [ 116@0 ]  76 -> [ 23@0 ]  78 -> [ 51@0 ]  83 -> [ 108@0 ]  88 -> [ 44@0 ]  93 -> [ 98@0 ]  94 -> [ 12@0 58@0 ]  96 -> [ 0@0 ]  97 -> [ 94@0 ]  99 -> [ 92@0 ]  100 -> [ 27@0 55@0 ]  101 -> [ 90@0 ]  102 -> [ 10@0 ]  104 -> [ 7@0 15@0 ]  109 -> [ 82@0 ]  110 -> [ 30@0 56@0 ]  113 -> [ 78@0 ]  115 -> [ 76@0 ]  119 -> [ 72@0 ]  120 -> [ 49@0 ]  121 -> [ 70@0 ]  122 -> [ 46@0 ]  123 -> [ 68@0 ]  ].
5 | network_0/router_31/vc_allocator | Input grants = [ 0 -> 96  7 -> 104  10 -> 102  12 -> 94  14 -> 65  23 -> 76  28 -> 68  44 -> 88  46 -> 122  49 -> 120  51 -> 78  55 -> 100  56 -> 110  65 -> 60  68 -> 123  70 -> 121  72 -> 119  76 -> 115  78 -> 113  82 -> 109  90 -> 101  92 -> 99  94 -> 97  98 -> 93  108 -> 83  116 -> 75  ], output grants = [ 60 -> 65  65 -> 14  68 -> 28  75 -> 116  76 -> 23  78 -> 51  83 -> 108  88 -> 44  93 -> 98  94 -> 12  96 -> 0  97 -> 94  99 -> 92  100 -> 55  101 -> 90  102 -> 10  104 -> 7  109 -> 82  110 -> 56  113 -> 78  115 -> 76  119 -> 72  120 -> 49  121 -> 70  122 -> 46  123 -> 68  ].
5 | network_0/router_31 | Assigning VC 0 at output 30 to VC 1 at input 32.
5 | network_0/router_31 | Completed VC allocation for VC 1 at input 32 (front: 1).
5 | network_0/router_31 |   Acquiring assigned VC 0 at output 30.
5 | network_0/router_31/buf_32/vc_1 | Changing state from vc_alloc to active.
5 | network_0/router_31 | Beginning switch allocation for VC 1 at input 32 (front: 1).
5 | network_0/router_31 |   Requesting output 30.0 (non-spec, pri: 0).
5 | network_0/router_31/sw_allocator | Input requests = [ 0 -> [ 48@0 ]  3 -> [ 52@0 ]  5 -> [ 51@0 ]  6 -> [ 47@0 ]  7 -> [ 32@0 ]  11 -> [ 38@0 ]  14 -> [ 34@0 ]  22 -> [ 44@0 ]  23 -> [ 61@0 ]  24 -> [ 60@0 ]  25 -> [ 39@0 ]  27 -> [ 50@0 ]  28 -> [ 55@0 ]  32 -> [ 30@0 ]  34 -> [ 61@0 ]  35 -> [ 60@0 ]  36 -> [ 59@0 ]  38 -> [ 57@0 ]  39 -> [ 56@0 ]  41 -> [ 54@0 ]  45 -> [ 50@0 ]  46 -> [ 49@0 ]  47 -> [ 48@0 ]  49 -> [ 46@0 ]  54 -> [ 41@0 ]  58 -> [ 37@0 ]  ], output requests = [ 30 -> [ 32@0 ]  32 -> [ 7@0 ]  34 -> [ 14@0 ]  37 -> [ 58@0 ]  38 -> [ 11@0 ]  39 -> [ 25@0 ]  41 -> [ 54@0 ]  44 -> [ 22@0 ]  46 -> [ 49@0 ]  47 -> [ 6@0 ]  48 -> [ 0@0 47@0 ]  49 -> [ 46@0 ]  50 -> [ 27@0 45@0 ]  51 -> [ 5@0 ]  52 -> [ 3@0 ]  54 -> [ 41@0 ]  55 -> [ 28@0 ]  56 -> [ 39@0 ]  57 -> [ 38@0 ]  59 -> [ 36@0 ]  60 -> [ 24@0 35@0 ]  61 -> [ 23@0 34@0 ]  ].
5 | network_0/router_31/sw_allocator | Input grants = [ 3 -> 52  5 -> 51  6 -> 47  7 -> 32  11 -> 38  14 -> 34  22 -> 44  23 -> 61  24 -> 60  25 -> 39  27 -> 50  28 -> 55  32 -> 30  36 -> 59  38 -> 57  39 -> 56  41 -> 54  46 -> 49  47 -> 48  49 -> 46  54 -> 41  58 -> 37  ], output grants = [ 30 -> 32  32 -> 7  34 -> 14  37 -> 58  38 -> 11  39 -> 25  41 -> 54  44 -> 22  46 -> 49  47 -> 6  48 -> 47  49 -> 46  50 -> 27  51 -> 5  52 -> 3  54 -> 41  55 -> 28  56 -> 39  57 -> 38  59 -> 36  60 -> 24  61 -> 23  ].
5 | network_0/router_31 | Assigning output 30.0 to VC 1 at input 32.0.
5 | network_0/router_31 | Completed switch allocation for VC 1 at input 32 (front: 1).
5 | network_0/router_31 |   Scheduling switch connection from input 32.0 to output 30.0.
5 | network_0/router_31 | Beginning crossbar traversal for flit 1 from input 32.0 to output 30.0.
5 | network_0/router_31 | Completed crossbar traversal for flit 1 from input 32.0 to output 30.0.
5 | network_0/router_31 | Buffering flit 1 at output 30.
5 | network_0/router_31 | Sending flit 1 to channel at output 30.
6 | network_0/network_0_fchan_egress1022 | Beginning channel traversal for flit 1 with delay 1.
6 | network_0/network_0_fchan_egress1022 | Completed channel traversal for flit 1.
7 | node1022 | Ejecting flit 1 (packet 1) from VC 0.
7 | node1022 | Injecting credit for VC 0 into subnet 0.
7 | node1022 | Retiring flit 1 (packet 1, src = 1, dest = 1022, hops = 2, flat = 7).
7 | node1022 | Retiring packet 1 (plat = 7, nlat = 7, frag = 0, src = 1, dest = 1022).
Class 0:
Packet latency average = 184.203
	minimum = 6
	maximum = 774
Network latency average = 90.5684
	minimum = 6
	maximum = 677
Slowest packet = 31864
Flit latency average = 90.5684
	minimum = 6
	maximum = 677
Slowest flit = 127410
Fragmentation average = 0
	minimum = 0
	maximum = 0
Injected packet rate average = 0.327727
	minimum = 0.157 (at node 3)
	maximum = 0.508 (at node 919)
Accepted packet rate average = 0.293927
	minimum = 0.125 (at node 1020)
	maximum = 0.494 (at node 104)
Injected flit rate average = 0.327727
	minimum = 0.157 (at node 3)
	maximum = 0.508 (at node 919)
Accepted flit rate average= 0.293927
	minimum = 0.125 (at node 1020)
	maximum = 0.494 (at node 104)
Injected packet length average = 1
Accepted packet length average = 1
Total in-flight flits = 35339 (0 measured)
latency change    = 1
throughput change = 1
Class 0:
Packet latency average = 395.895
	minimum = 6
	maximum = 1374
Network latency average = 104.799
	minimum = 6
	maximum = 771
Slowest packet = 31864
Flit latency average = 104.799
	minimum = 6
	maximum = 771
Slowest flit = 295360
Fragmentation average = 0
	minimum = 0
	maximum = 0
Injected packet rate average = 0.304994
	minimum = 0.1785 (at node 99)
	maximum = 0.4625 (at node 224)
Accepted packet rate average = 0.288115
	minimum = 0.1595 (at node 924)
	maximum = 0.444 (at node 799)
Injected flit rate average = 0.304994
	minimum = 0.1785 (at node 99)
	maximum = 0.4625 (at node 224)
Accepted flit rate average= 0.288115
	minimum = 0.1595 (at node 924)
	maximum = 0.444 (at node 799)
Injected packet length average = 1
Accepted packet length average = 1
Total in-flight flits = 35323 (0 measured)
latency change    = 0.534716
throughput change = 0.0201708
Class 0:
Packet latency average = 1053.8
	minimum = 163
	maximum = 1936
Network latency average = 119.746
	minimum = 12
	maximum = 703
Slowest packet = 591201
Flit latency average = 119.746
	minimum = 12
	maximum = 703
Slowest flit = 705896
Fragmentation average = 0
	minimum = 0
	maximum = 0
Injected packet rate average = 0.283024
	minimum = 0.089 (at node 882)
	maximum = 0.53 (at node 66)
Accepted packet rate average = 0.282831
	minimum = 0.089 (at node 141)
	maximum = 0.532 (at node 957)
Injected flit rate average = 0.283024
	minimum = 0.089 (at node 882)
	maximum = 0.53 (at node 66)
Accepted flit rate average= 0.282831
	minimum = 0.089 (at node 141)
	maximum = 0.532 (at node 957)
Injected packet length average = 1
Accepted packet length average = 1
Total in-flight flits = 35490 (0 measured)
latency change    = 0.624318
throughput change = 0.0186832
Average latency for class 0 exceeded 500 cycles. Aborting simulation.
Too many sample periods needed to converge
Simulation unstable, ending ...
Total run time 5584.92
