BEGIN Configuration File: ../../booksim2/src/examples/flatflyconfig
// $Id$

// Copyright (c) 2007-2015, Trustees of The Leland Stanford Junior University
// All rights reserved.
//
// Redistribution and use in source and binary forms, with or without
// modification, are permitted provided that the following conditions are met:
//
// Redistributions of source code must retain the above copyright notice, this
// list of conditions and the following disclaimer.
// Redistributions in binary form must reproduce the above copyright notice,
// this list of conditions and the following disclaimer in the documentation
// and/or other materials provided with the distribution.
//
// THIS SOFTWARE IS PROVIDED BY THE COPYRIGHT HOLDERS AND CONTRIBUTORS "AS IS"
// AND ANY EXPRESS OR IMPLIED WARRANTIES, INCLUDING, BUT NOT LIMITED TO, THE
// IMPLIED WARRANTIES OF MERCHANTABILITY AND FITNESS FOR A PARTICULAR PURPOSE
// ARE DISCLAIMED. IN NO EVENT SHALL THE COPYRIGHT OWNER OR CONTRIBUTORS BE
// LIABLE FOR ANY DIRECT, INDIRECT, INCIDENTAL, SPECIAL, EXEMPLARY, OR
// CONSEQUENTIAL DAMAGES (INCLUDING, BUT NOT LIMITED TO, PROCUREMENT OF
// SUBSTITUTE GOODS OR SERVICES; LOSS OF USE, DATA, OR PROFITS; OR BUSINESS
// INTERRUPTION) HOWEVER CAUSED AND ON ANY THEORY OF LIABILITY, WHETHER IN
// CONTRACT, STRICT LIABILITY, OR TORT (INCLUDING NEGLIGENCE OR OTHERWISE)
// ARISING IN ANY WAY OUT OF THE USE OF THIS SOFTWARE, EVEN IF ADVISED OF THE
// POSSIBILITY OF SUCH DAMAGE.

//A flattened butterfly configurate file with many tweaks from the
//default settings. 


// Flow control
// Total number of VCs must match the above assignments
num_vcs     = 2;
vc_buf_size = 16;

wait_for_tail_credit = 0;

//
// Router architectureq
//
vc_allocator = islip; 
sw_allocator = islip;
alloc_iters  = 3;

credit_delay   = 0;
routing_delay  = 1;
vc_alloc_delay = 1;
sw_alloc_delay = 1;
st_final_delay = 1;

input_speedup     = 1;
output_speedup    = 1;
internal_speedup  = 1.6;

//
// Traffic
//

warmup_periods = 3;

sample_period  = 1000;  

sim_count          = 1;

traffic       = bitrev;


// Flatfly 
//
// #node = k^(n+1)
//
// x, y, specifies the arrangement of routers in x and y dim
// xr, yr specifiies the arayment of clients in a router
//
topology = flatfly;
subnets = 1;

c  = 16;
k  = 16;
n  = 1;

x  = 16;
y  = 1;
xr = 16;
yr = 1;

use_noc_latency = 0;

//
// Routing
//

routing_function = ugal;

//1: batch mode, 0: injection mode
use_read_write = 0;

//for injection mode
packet_size = 1;
injection_rate = 0.1;

//for batch mode
read_request_size=1;
write_request_size=1;
read_reply_size=1;
write_reply_size=1;

read_request_begin_vc  = 0;
read_request_end_vc    = 3;
write_reply_begin_vc   = 4;
write_reply_end_vc     = 7;
read_reply_begin_vc    = 4;
read_reply_end_vc      = 7;
write_request_begin_vc = 0;
write_request_end_vc   = 3;

//latency: drains all packet, throughput:no drain?
sim_type = latency;

watch_out = -;;END Configuration File: ../../booksim2/src/examples/flatflyconfig
OVERRIDE Parameter: routing_function=ugal
OVERRIDE Parameter: traffic=bitcomp
OVERRIDE Parameter: injection_rate={0.1}
OVERRIDE Parameter: c=32
OVERRIDE Parameter: k=32
OVERRIDE Parameter: x=32
OVERRIDE Parameter: xr=32
OVERRIDE Parameter: sim_type=latency
OVERRIDE Parameter: seed=1
 Flat Bufferfly 
 k = 32 n = 1 c = 32
 each switch - total radix =  63
 # of switches = 32
 # of channels = 992
 # of nodes ( size of network ) = 1024
0 | node5 | Enqueuing flit 1 (packet 1) at time 0.
0 | traffic_manager | Finding output VC for flit 1:
0 | traffic_manager |   Selected output VC 0.
0 | node5 | Injecting flit 1 into subnet 0 at time 0 with priority 0.
1 | network_0/network_0_fchan_ingress5 | Beginning channel traversal for flit 1 with delay 1.
1 | network_0/network_0_fchan_ingress5 | Completed channel traversal for flit 1.
2 | network_0/router_0 | Received flit 1 from channel at input 5.
2 | network_0/router_0 | Adding flit 1 to VC 0 at input 5 (state: idle, empty).
2 | network_0/router_0/buf_5/vc_0 | Changing state from idle to routing.
2 | network_0/router_0 | Beginning routing for VC 0 at input 5 (front: 1).
2 | network_0/router_0 | Completed routing for VC 0 at input 5 (front: 1).
2 | network_0/router_0 |  MIN tmp_out_port: 622 | network_0/router_0 |  NONMIN tmp_out_port: 45
2 | network_0/router_0/buf_5/vc_0 | Changing state from routing to vc_alloc.
2 | network_0/router_0 | Beginning VC allocation for VC 0 at input 5 (front: 1).
2 | network_0/router_0 |   Requesting VC 1 at output 62 (in_pri: 0, out_pri: 0).
2 | network_0/router_0/vc_allocator | Input requests = [ 8 -> [ 125@0 ]  10 -> [ 125@0 ]  26 -> [ 125@0 ]  32 -> [ 125@0 ]  56 -> [ 125@0 ]  ], output requests = [ 125 -> [ 8@0 10@0 26@0 32@0 56@0 ]  ].
2 | network_0/router_0/vc_allocator | Input grants = [ 8 -> 125  ], output grants = [ 125 -> 8  ].
2 | network_0/router_0 | VC allocation failed for VC 0 at input 5.
2 | network_0/router_0 | Completed VC allocation for VC 0 at input 5 (front: 1).
2 | network_0/router_0 |   No output VC allocated.
3 | network_0/router_0 | Beginning VC allocation for VC 0 at input 5 (front: 1).
3 | network_0/router_0 |   Requesting VC 1 at output 62 (in_pri: 0, out_pri: 0).
3 | network_0/router_0/vc_allocator | Input requests = [ 2 -> [ 102@0 ]  9 -> [ 96@0 ]  10 -> [ 125@0 ]  16 -> [ 118@0 ]  26 -> [ 125@0 ]  32 -> [ 125@0 ]  36 -> [ 96@0 ]  50 -> [ 96@0 ]  56 -> [ 125@0 ]  58 -> [ 114@0 ]  ], output requests = [ 96 -> [ 9@0 36@0 50@0 ]  102 -> [ 2@0 ]  114 -> [ 58@0 ]  118 -> [ 16@0 ]  125 -> [ 10@0 26@0 32@0 56@0 ]  ].
3 | network_0/router_0/vc_allocator | Input grants = [ 2 -> 102  9 -> 96  10 -> 125  16 -> 118  58 -> 114  ], output grants = [ 96 -> 9  102 -> 2  114 -> 58  118 -> 16  125 -> 10  ].
3 | network_0/router_0 | Assigning VC 1 at output 62 to VC 0 at input 5.
3 | network_0/router_0 | Completed VC allocation for VC 0 at input 5 (front: 1).
3 | network_0/router_0 |   Acquiring assigned VC 1 at output 62.
3 | network_0/router_0/buf_5/vc_0 | Changing state from vc_alloc to active.
3 | network_0/router_0 | Beginning switch allocation for VC 0 at input 5 (front: 1).
3 | network_0/router_0 |   Requesting output 62.0 (non-spec, pri: 0).
3 | network_0/router_0/sw_allocator | Input requests = [ 1 -> [ 51@0 ]  4 -> [ 48@0 ]  5 -> [ 62@0 ]  8 -> [ 59@0 ]  29 -> [ 57@0 ]  ], output requests = [ 48 -> [ 4@0 ]  51 -> [ 1@0 ]  57 -> [ 29@0 ]  59 -> [ 8@0 ]  62 -> [ 5@0 ]  ].
3 | network_0/router_0/sw_allocator | Input grants = [ 1 -> 51  4 -> 48  5 -> 62  8 -> 59  29 -> 57  ], output grants = [ 48 -> 4  51 -> 1  57 -> 29  59 -> 8  62 -> 5  ].
3 | network_0/router_0 | Assigning output 62.0 to VC 0 at input 5.0.
3 | network_0/router_0 | Completed switch allocation for VC 0 at input 5 (front: 1).
3 | network_0/router_0 |   Scheduling switch connection from input 5.0 to output 62.0.
3 | network_0/router_0 | Beginning crossbar traversal for flit 1 from input 5.0 to output 62.0.
3 | network_0/router_0 | Completed crossbar traversal for flit 1 from input 5.0 to output 62.0.
3 | network_0/router_0 | Buffering flit 1 at output 62.
3 | network_0/router_0 | Sending flit 1 to channel at output 62.
4 | network_0/network_0_fchan_30 | Beginning channel traversal for flit 1 with delay 1.
4 | network_0/network_0_fchan_30 | Completed channel traversal for flit 1.
5 | network_0/router_31 | Received flit 1 from channel at input 32.
5 | network_0/router_31 | Adding flit 1 to VC 1 at input 32 (state: idle, empty).
5 | network_0/router_31/buf_32/vc_1 | Changing state from idle to routing.
5 | network_0/router_31 | Beginning routing for VC 1 at input 32 (front: 1).
5 | network_0/router_31 | Completed routing for VC 1 at input 32 (front: 1).
5 | network_0/router_31/buf_32/vc_1 | Changing state from routing to vc_alloc.
5 | network_0/router_31 | Beginning VC allocation for VC 1 at input 32 (front: 1).
5 | network_0/router_31 |   Requesting VC 0 at output 26 (in_pri: 0, out_pri: 0).
5 | network_0/router_31 |   Requesting VC 1 at output 26 (in_pri: 0, out_pri: 0).
5 | network_0/router_31/vc_allocator | Input requests = [ 6 -> [ 124@0 ]  12 -> [ 68@0 ]  26 -> [ 66@0 ]  30 -> [ 122@0 ]  38 -> [ 108@0 ]  52 -> [ 65@0 ]  59 -> [ 112@0 ]  65 -> [ 52@0 53@0 ]  ], output requests = [ 52 -> [ 65@0 ]  53 -> [ 65@0 ]  65 -> [ 52@0 ]  66 -> [ 26@0 ]  68 -> [ 12@0 ]  108 -> [ 38@0 ]  112 -> [ 59@0 ]  122 -> [ 30@0 ]  124 -> [ 6@0 ]  ].
5 | network_0/router_31/vc_allocator | Input grants = [ 6 -> 124  12 -> 68  26 -> 66  30 -> 122  38 -> 108  52 -> 65  59 -> 112  65 -> 52  ], output grants = [ 52 -> 65  65 -> 52  66 -> 26  68 -> 12  108 -> 38  112 -> 59  122 -> 30  124 -> 6  ].
5 | network_0/router_31 | Assigning VC 0 at output 26 to VC 1 at input 32.
5 | network_0/router_31 | Completed VC allocation for VC 1 at input 32 (front: 1).
5 | network_0/router_31 |   Acquiring assigned VC 0 at output 26.
5 | network_0/router_31/buf_32/vc_1 | Changing state from vc_alloc to active.
5 | network_0/router_31 | Beginning switch allocation for VC 1 at input 32 (front: 1).
5 | network_0/router_31 |   Requesting output 26.0 (non-spec, pri: 0).
5 | network_0/router_31/sw_allocator | Input requests = [ 3 -> [ 62@0 ]  6 -> [ 34@0 ]  13 -> [ 33@0 ]  15 -> [ 61@0 ]  19 -> [ 54@0 ]  26 -> [ 32@0 ]  29 -> [ 56@0 ]  32 -> [ 26@0 ]  ], output requests = [ 26 -> [ 32@0 ]  32 -> [ 26@0 ]  33 -> [ 13@0 ]  34 -> [ 6@0 ]  54 -> [ 19@0 ]  56 -> [ 29@0 ]  61 -> [ 15@0 ]  62 -> [ 3@0 ]  ].
5 | network_0/router_31/sw_allocator | Input grants = [ 3 -> 62  6 -> 34  13 -> 33  15 -> 61  19 -> 54  26 -> 32  29 -> 56  32 -> 26  ], output grants = [ 26 -> 32  32 -> 26  33 -> 13  34 -> 6  54 -> 19  56 -> 29  61 -> 15  62 -> 3  ].
5 | network_0/router_31 | Assigning output 26.0 to VC 1 at input 32.0.
5 | network_0/router_31 | Completed switch allocation for VC 1 at input 32 (front: 1).
5 | network_0/router_31 |   Scheduling switch connection from input 32.0 to output 26.0.
5 | network_0/router_31 | Beginning crossbar traversal for flit 1 from input 32.0 to output 26.0.
5 | network_0/router_31 | Completed crossbar traversal for flit 1 from input 32.0 to output 26.0.
5 | network_0/router_31 | Buffering flit 1 at output 26.
5 | network_0/router_31 | Sending flit 1 to channel at output 26.
6 | network_0/network_0_fchan_egress1018 | Beginning channel traversal for flit 1 with delay 1.
6 | network_0/network_0_fchan_egress1018 | Completed channel traversal for flit 1.
7 | node1018 | Ejecting flit 1 (packet 1) from VC 0.
7 | node1018 | Injecting credit for VC 0 into subnet 0.
7 | node1018 | Retiring flit 1 (packet 1, src = 5, dest = 1018, hops = 2, flat = 7).
7 | node1018 | Retiring packet 1 (plat = 7, nlat = 7, frag = 0, src = 5, dest = 1018).
Class 0:
Packet latency average = 7.91969
	minimum = 6
	maximum = 17
Network latency average = 7.91969
	minimum = 6
	maximum = 17
Slowest packet = 5940
Flit latency average = 7.91969
	minimum = 6
	maximum = 17
Slowest flit = 5940
Fragmentation average = 0
	minimum = 0
	maximum = 0
Injected packet rate average = 0.100098
	minimum = 0.056 (at node 554)
	maximum = 0.143 (at node 112)
Accepted packet rate average = 0.0992871
	minimum = 0.055 (at node 469)
	maximum = 0.142 (at node 911)
Injected flit rate average = 0.100098
	minimum = 0.056 (at node 554)
	maximum = 0.143 (at node 112)
Accepted flit rate average= 0.0992871
	minimum = 0.055 (at node 469)
	maximum = 0.142 (at node 911)
Injected packet length average = 1
Accepted packet length average = 1
Total in-flight flits = 830 (0 measured)
latency change    = 1
throughput change = 1
Class 0:
Packet latency average = 7.91832
	minimum = 6
	maximum = 17
Network latency average = 7.91832
	minimum = 6
	maximum = 17
Slowest packet = 5940
Flit latency average = 7.91832
	minimum = 6
	maximum = 17
Slowest flit = 5940
Fragmentation average = 0
	minimum = 0
	maximum = 0
Injected packet rate average = 0.100072
	minimum = 0.074 (at node 554)
	maximum = 0.1235 (at node 965)
Accepted packet rate average = 0.0996699
	minimum = 0.0735 (at node 469)
	maximum = 0.123 (at node 58)
Injected flit rate average = 0.100072
	minimum = 0.074 (at node 554)
	maximum = 0.1235 (at node 965)
Accepted flit rate average= 0.0996699
	minimum = 0.0735 (at node 469)
	maximum = 0.123 (at node 58)
Injected packet length average = 1
Accepted packet length average = 1
Total in-flight flits = 823 (0 measured)
latency change    = 0.000173257
throughput change = 0.0038408
Class 0:
Packet latency average = 7.92443
	minimum = 6
	maximum = 19
Network latency average = 7.92443
	minimum = 6
	maximum = 19
Slowest packet = 220916
Flit latency average = 7.92443
	minimum = 6
	maximum = 19
Slowest flit = 220916
Fragmentation average = 0
	minimum = 0
	maximum = 0
Injected packet rate average = 0.100016
	minimum = 0.072 (at node 796)
	maximum = 0.141 (at node 644)
Accepted packet rate average = 0.0999922
	minimum = 0.071 (at node 227)
	maximum = 0.14 (at node 379)
Injected flit rate average = 0.100016
	minimum = 0.072 (at node 796)
	maximum = 0.141 (at node 644)
Accepted flit rate average= 0.0999922
	minimum = 0.071 (at node 227)
	maximum = 0.14 (at node 379)
Injected packet length average = 1
Accepted packet length average = 1
Total in-flight flits = 847 (0 measured)
latency change    = 0.000770836
throughput change = 0.00322291
Warmed up ...Time used is 3000 cycles
Class 0:
Packet latency average = 7.92038
	minimum = 6
	maximum = 18
Network latency average = 7.92038
	minimum = 6
	maximum = 18
Slowest packet = 397399
Flit latency average = 7.92191
	minimum = 6
	maximum = 18
Slowest flit = 397399
Fragmentation average = 0
	minimum = 0
	maximum = 0
Injected packet rate average = 0.10044
	minimum = 0.073 (at node 426)
	maximum = 0.128 (at node 25)
Accepted packet rate average = 0.100477
	minimum = 0.072 (at node 597)
	maximum = 0.128 (at node 73)
Injected flit rate average = 0.10044
	minimum = 0.073 (at node 426)
	maximum = 0.128 (at node 25)
Accepted flit rate average= 0.100477
	minimum = 0.072 (at node 597)
	maximum = 0.128 (at node 73)
Injected packet length average = 1
Accepted packet length average = 1
Total in-flight flits = 810 (810 measured)
latency change    = 0.000510423
throughput change = 0.00482078
Class 0:
Packet latency average = 7.92287
	minimum = 6
	maximum = 18
Network latency average = 7.92287
	minimum = 6
	maximum = 18
Slowest packet = 397399
Flit latency average = 7.92362
	minimum = 6
	maximum = 18
Slowest flit = 397399
Fragmentation average = 0
	minimum = 0
	maximum = 0
Injected packet rate average = 0.100292
	minimum = 0.0825 (at node 36)
	maximum = 0.1215 (at node 39)
Accepted packet rate average = 0.100323
	minimum = 0.082 (at node 987)
	maximum = 0.1215 (at node 984)
Injected flit rate average = 0.100292
	minimum = 0.0825 (at node 36)
	maximum = 0.1215 (at node 39)
Accepted flit rate average= 0.100323
	minimum = 0.082 (at node 987)
	maximum = 0.1215 (at node 984)
Injected packet length average = 1
Accepted packet length average = 1
Total in-flight flits = 782 (782 measured)
latency change    = 0.000313628
throughput change = 0.00152826
Class 0:
Packet latency average = 7.92426
	minimum = 6
	maximum = 18
Network latency average = 7.92426
	minimum = 6
	maximum = 18
Slowest packet = 397399
Flit latency average = 7.92475
	minimum = 6
	maximum = 18
Slowest flit = 397399
Fragmentation average = 0
	minimum = 0
	maximum = 0
Injected packet rate average = 0.100388
	minimum = 0.083 (at node 579)
	maximum = 0.116333 (at node 496)
Accepted packet rate average = 0.100409
	minimum = 0.0833333 (at node 987)
	maximum = 0.116333 (at node 331)
Injected flit rate average = 0.100388
	minimum = 0.083 (at node 579)
	maximum = 0.116333 (at node 496)
Accepted flit rate average= 0.100409
	minimum = 0.0833333 (at node 987)
	maximum = 0.116333 (at node 331)
Injected packet length average = 1
Accepted packet length average = 1
Total in-flight flits = 783 (783 measured)
latency change    = 0.000175123
throughput change = 0.000849395
Draining all recorded packets ...
Draining remaining packets ...
Time taken is 6025 cycles
====== Overall Traffic Statistics ======
====== Traffic class 0 ======
Packet latency average = 7.92455 (1 samples)
	minimum = 6 (1 samples)
	maximum = 18 (1 samples)
Network latency average = 7.92455 (1 samples)
	minimum = 6 (1 samples)
	maximum = 18 (1 samples)
Flit latency average = 7.92506 (1 samples)
	minimum = 6 (1 samples)
	maximum = 18 (1 samples)
Fragmentation average = 0 (1 samples)
	minimum = 0 (1 samples)
	maximum = 0 (1 samples)
Injected packet rate average = 0.100388 (1 samples)
	minimum = 0.083 (1 samples)
	maximum = 0.116333 (1 samples)
Accepted packet rate average = 0.100409 (1 samples)
	minimum = 0.0833333 (1 samples)
	maximum = 0.116333 (1 samples)
Injected flit rate average = 0.100388 (1 samples)
	minimum = 0.083 (1 samples)
	maximum = 0.116333 (1 samples)
Accepted flit rate average = 0.100409 (1 samples)
	minimum = 0.0833333 (1 samples)
	maximum = 0.116333 (1 samples)
Injected packet size average = 1 (1 samples)
Accepted packet size average = 1 (1 samples)
Hops average = 2.75369 (1 samples)
Total run time 3559.28
