BEGIN Configuration File: ../../booksim2/src/examples/flatflyconfig
// $Id$

// Copyright (c) 2007-2015, Trustees of The Leland Stanford Junior University
// All rights reserved.
//
// Redistribution and use in source and binary forms, with or without
// modification, are permitted provided that the following conditions are met:
//
// Redistributions of source code must retain the above copyright notice, this
// list of conditions and the following disclaimer.
// Redistributions in binary form must reproduce the above copyright notice,
// this list of conditions and the following disclaimer in the documentation
// and/or other materials provided with the distribution.
//
// THIS SOFTWARE IS PROVIDED BY THE COPYRIGHT HOLDERS AND CONTRIBUTORS "AS IS"
// AND ANY EXPRESS OR IMPLIED WARRANTIES, INCLUDING, BUT NOT LIMITED TO, THE
// IMPLIED WARRANTIES OF MERCHANTABILITY AND FITNESS FOR A PARTICULAR PURPOSE
// ARE DISCLAIMED. IN NO EVENT SHALL THE COPYRIGHT OWNER OR CONTRIBUTORS BE
// LIABLE FOR ANY DIRECT, INDIRECT, INCIDENTAL, SPECIAL, EXEMPLARY, OR
// CONSEQUENTIAL DAMAGES (INCLUDING, BUT NOT LIMITED TO, PROCUREMENT OF
// SUBSTITUTE GOODS OR SERVICES; LOSS OF USE, DATA, OR PROFITS; OR BUSINESS
// INTERRUPTION) HOWEVER CAUSED AND ON ANY THEORY OF LIABILITY, WHETHER IN
// CONTRACT, STRICT LIABILITY, OR TORT (INCLUDING NEGLIGENCE OR OTHERWISE)
// ARISING IN ANY WAY OUT OF THE USE OF THIS SOFTWARE, EVEN IF ADVISED OF THE
// POSSIBILITY OF SUCH DAMAGE.

//A flattened butterfly configurate file with many tweaks from the
//default settings. 


// Flow control
// Total number of VCs must match the above assignments
num_vcs     = 2;
vc_buf_size = 16;

wait_for_tail_credit = 0;

//
// Router architectureq
//
vc_allocator = islip; 
sw_allocator = islip;
alloc_iters  = 3;

credit_delay   = 0;
routing_delay  = 1;
vc_alloc_delay = 1;
sw_alloc_delay = 1;
st_final_delay = 1;

input_speedup     = 1;
output_speedup    = 1;
internal_speedup  = 1.6;

//
// Traffic
//

warmup_periods = 3;

sample_period  = 1000;  

sim_count          = 1;

traffic       = bitrev;


// Flatfly 
//
// #node = k^(n+1)
//
// x, y, specifies the arrangement of routers in x and y dim
// xr, yr specifiies the arayment of clients in a router
//
topology = flatfly;
subnets = 1;

c  = 16;
k  = 16;
n  = 1;

x  = 16;
y  = 1;
xr = 16;
yr = 1;

use_noc_latency = 0;

//
// Routing
//

routing_function = ugal;

//1: batch mode, 0: injection mode
use_read_write = 0;

//for injection mode
packet_size = 1;
injection_rate = 0.1;

//for batch mode
read_request_size=1;
write_request_size=1;
read_reply_size=1;
write_reply_size=1;

read_request_begin_vc  = 0;
read_request_end_vc    = 3;
write_reply_begin_vc   = 4;
write_reply_end_vc     = 7;
read_reply_begin_vc    = 4;
read_reply_end_vc      = 7;
write_request_begin_vc = 0;
write_request_end_vc   = 3;

//latency: drains all packet, throughput:no drain?
sim_type = latency;

watch_out = -;;END Configuration File: ../../booksim2/src/examples/flatflyconfig
OVERRIDE Parameter: routing_function=ugal
OVERRIDE Parameter: traffic=bitcomp
OVERRIDE Parameter: injection_rate={0.3}
OVERRIDE Parameter: c=32
OVERRIDE Parameter: k=32
OVERRIDE Parameter: x=32
OVERRIDE Parameter: xr=32
OVERRIDE Parameter: sim_type=latency
OVERRIDE Parameter: seed=1
 Flat Bufferfly 
 k = 32 n = 1 c = 32
 each switch - total radix =  63
 # of switches = 32
 # of channels = 992
 # of nodes ( size of network ) = 1024
0 | node2 | Enqueuing flit 1 (packet 1) at time 0.
0 | traffic_manager | Finding output VC for flit 1:
0 | traffic_manager |   Selected output VC 0.
0 | node2 | Injecting flit 1 into subnet 0 at time 0 with priority 0.
1 | network_0/network_0_fchan_ingress2 | Beginning channel traversal for flit 1 with delay 1.
1 | network_0/network_0_fchan_ingress2 | Completed channel traversal for flit 1.
2 | network_0/router_0 | Received flit 1 from channel at input 2.
2 | network_0/router_0 | Adding flit 1 to VC 0 at input 2 (state: idle, empty).
2 | network_0/router_0/buf_2/vc_0 | Changing state from idle to routing.
2 | network_0/router_0 | Beginning routing for VC 0 at input 2 (front: 1).
2 | network_0/router_0 | Completed routing for VC 0 at input 2 (front: 1).
2 | network_0/router_0 |  MIN tmp_out_port: 622 | network_0/router_0 |  NONMIN tmp_out_port: 61
2 | network_0/router_0/buf_2/vc_0 | Changing state from routing to vc_alloc.
2 | network_0/router_0 | Beginning VC allocation for VC 0 at input 2 (front: 1).
2 | network_0/router_0 |   Requesting VC 1 at output 62 (in_pri: 0, out_pri: 0).
2 | network_0/router_0/vc_allocator | Input requests = [ 2 -> [ 125@0 ]  4 -> [ 125@0 ]  8 -> [ 125@0 ]  10 -> [ 125@0 ]  12 -> [ 125@0 ]  20 -> [ 125@0 ]  26 -> [ 125@0 ]  32 -> [ 125@0 ]  40 -> [ 125@0 ]  52 -> [ 125@0 ]  56 -> [ 125@0 ]  ], output requests = [ 125 -> [ 2@0 4@0 8@0 10@0 12@0 20@0 26@0 32@0 40@0 52@0 56@0 ]  ].
2 | network_0/router_0/vc_allocator | Input grants = [ 2 -> 125  ], output grants = [ 125 -> 2  ].
2 | network_0/router_0 | VC allocation failed for VC 0 at input 2.
2 | network_0/router_0 | Completed VC allocation for VC 0 at input 2 (front: 1).
2 | network_0/router_0 |   No output VC allocated.
3 | network_0/router_0 | Beginning VC allocation for VC 0 at input 2 (front: 1).
3 | network_0/router_0 |   Requesting VC 1 at output 62 (in_pri: 0, out_pri: 0).
3 | network_0/router_0/vc_allocator | Input requests = [ 3 -> [ 118@0 ]  4 -> [ 125@0 ]  5 -> [ 100@0 ]  8 -> [ 125@0 ]  9 -> [ 118@0 ]  10 -> [ 125@0 ]  11 -> [ 100@0 ]  12 -> [ 125@0 ]  16 -> [ 80@0 ]  18 -> [ 96@0 ]  20 -> [ 125@0 ]  26 -> [ 125@0 ]  27 -> [ 90@0 ]  28 -> [ 70@0 ]  32 -> [ 125@0 ]  36 -> [ 116@0 ]  40 -> [ 125@0 ]  42 -> [ 88@0 ]  50 -> [ 102@0 ]  52 -> [ 125@0 ]  53 -> [ 96@0 ]  54 -> [ 78@0 ]  56 -> [ 125@0 ]  58 -> [ 90@0 ]  ], output requests = [ 70 -> [ 28@0 ]  78 -> [ 54@0 ]  80 -> [ 16@0 ]  88 -> [ 42@0 ]  90 -> [ 27@0 58@0 ]  96 -> [ 18@0 53@0 ]  100 -> [ 5@0 11@0 ]  102 -> [ 50@0 ]  116 -> [ 36@0 ]  118 -> [ 3@0 9@0 ]  125 -> [ 4@0 8@0 10@0 12@0 20@0 26@0 32@0 40@0 52@0 56@0 ]  ].
3 | network_0/router_0/vc_allocator | Input grants = [ 3 -> 118  4 -> 125  5 -> 100  16 -> 80  18 -> 96  27 -> 90  28 -> 70  36 -> 116  42 -> 88  50 -> 102  54 -> 78  ], output grants = [ 70 -> 28  78 -> 54  80 -> 16  88 -> 42  90 -> 27  96 -> 18  100 -> 5  102 -> 50  116 -> 36  118 -> 3  125 -> 4  ].
3 | network_0/router_0 | Assigning VC 1 at output 62 to VC 0 at input 2.
3 | network_0/router_0 | Completed VC allocation for VC 0 at input 2 (front: 1).
3 | network_0/router_0 |   Acquiring assigned VC 1 at output 62.
3 | network_0/router_0/buf_2/vc_0 | Changing state from vc_alloc to active.
3 | network_0/router_0 | Beginning switch allocation for VC 0 at input 2 (front: 1).
3 | network_0/router_0 |   Requesting output 62.0 (non-spec, pri: 0).
3 | network_0/router_0/sw_allocator | Input requests = [ 1 -> [ 59@0 ]  2 -> [ 50@0 62@0 ]  8 -> [ 40@0 ]  9 -> [ 48@0 ]  13 -> [ 45@0 ]  14 -> [ 35@0 ]  18 -> [ 58@0 ]  21 -> [ 44@0 ]  25 -> [ 51@0 ]  27 -> [ 39@0 ]  ], output requests = [ 35 -> [ 14@0 ]  39 -> [ 27@0 ]  40 -> [ 8@0 ]  44 -> [ 21@0 ]  45 -> [ 13@0 ]  48 -> [ 9@0 ]  50 -> [ 2@0 ]  51 -> [ 25@0 ]  58 -> [ 18@0 ]  59 -> [ 1@0 ]  62 -> [ 2@0 ]  ].
3 | network_0/router_0/sw_allocator | Input grants = [ 1 -> 59  2 -> 50  8 -> 40  9 -> 48  13 -> 45  14 -> 35  18 -> 58  21 -> 44  25 -> 51  27 -> 39  ], output grants = [ 35 -> 14  39 -> 27  40 -> 8  44 -> 21  45 -> 13  48 -> 9  50 -> 2  51 -> 25  58 -> 18  59 -> 1  ].
3 | network_0/router_0 | Switch allocation failed for VC 0 at input 2: Granted to VC 1.
3 | network_0/router_0 | Completed switch allocation for VC 0 at input 2 (front: 1).
3 | network_0/router_0 |   No output port allocated.
3 | network_0/router_0 | Beginning switch allocation for VC 0 at input 2 (front: 1).
3 | network_0/router_0 |   Requesting output 62.0 (non-spec, pri: 0).
3 | network_0/router_0/sw_allocator | Input requests = [ 2 -> [ 62@0 ]  4 -> [ 59@0 ]  5 -> [ 50@0 ]  26 -> [ 48@0 ]  29 -> [ 45@0 ]  ], output requests = [ 45 -> [ 29@0 ]  48 -> [ 26@0 ]  50 -> [ 5@0 ]  59 -> [ 4@0 ]  62 -> [ 2@0 ]  ].
3 | network_0/router_0/sw_allocator | Input grants = [ 2 -> 62  4 -> 59  5 -> 50  26 -> 48  29 -> 45  ], output grants = [ 45 -> 29  48 -> 26  50 -> 5  59 -> 4  62 -> 2  ].
3 | network_0/router_0 | Assigning output 62.0 to VC 0 at input 2.0.
3 | network_0/router_0 | Completed switch allocation for VC 0 at input 2 (front: 1).
3 | network_0/router_0 |   Scheduling switch connection from input 2.0 to output 62.0.
3 | network_0/router_0 | Beginning crossbar traversal for flit 1 from input 2.0 to output 62.0.
3 | network_0/router_0 | Completed crossbar traversal for flit 1 from input 2.0 to output 62.0.
3 | network_0/router_0 | Buffering flit 1 at output 62.
3 | network_0/router_0 | Sending flit 1 to channel at output 62.
4 | network_0/network_0_fchan_30 | Beginning channel traversal for flit 1 with delay 1.
4 | network_0/network_0_fchan_30 | Completed channel traversal for flit 1.
5 | network_0/router_31 | Received flit 1 from channel at input 32.
5 | network_0/router_31 | Adding flit 1 to VC 1 at input 32 (state: idle, empty).
5 | network_0/router_31/buf_32/vc_1 | Changing state from idle to routing.
5 | network_0/router_31 | Beginning routing for VC 1 at input 32 (front: 1).
5 | network_0/router_31 | Completed routing for VC 1 at input 32 (front: 1).
5 | network_0/router_31/buf_32/vc_1 | Changing state from routing to vc_alloc.
5 | network_0/router_31 | Beginning VC allocation for VC 1 at input 32 (front: 1).
5 | network_0/router_31 |   Requesting VC 0 at output 29 (in_pri: 0, out_pri: 0).
5 | network_0/router_31 |   Requesting VC 1 at output 29 (in_pri: 0, out_pri: 0).
5 | network_0/router_31/vc_allocator | Input requests = [ 1 -> [ 78@0 ]  7 -> [ 108@0 ]  8 -> [ 70@0 ]  10 -> [ 92@0 ]  12 -> [ 66@0 ]  20 -> [ 65@0 ]  24 -> [ 65@0 ]  27 -> [ 98@0 ]  28 -> [ 78@0 ]  31 -> [ 74@0 ]  38 -> [ 70@0 ]  40 -> [ 65@0 ]  42 -> [ 68@0 ]  44 -> [ 116@0 ]  46 -> [ 98@0 ]  48 -> [ 66@0 ]  50 -> [ 65@0 ]  52 -> [ 65@0 ]  53 -> [ 76@0 ]  59 -> [ 76@0 ]  65 -> [ 58@0 59@0 ]  70 -> [ 121@0 ]  84 -> [ 107@0 ]  86 -> [ 105@0 ]  100 -> [ 91@0 ]  102 -> [ 89@0 ]  106 -> [ 85@0 ]  114 -> [ 77@0 ]  ], output requests = [ 58 -> [ 65@0 ]  59 -> [ 65@0 ]  65 -> [ 20@0 24@0 40@0 50@0 52@0 ]  66 -> [ 12@0 48@0 ]  68 -> [ 42@0 ]  70 -> [ 8@0 38@0 ]  74 -> [ 31@0 ]  76 -> [ 53@0 59@0 ]  77 -> [ 114@0 ]  78 -> [ 1@0 28@0 ]  85 -> [ 106@0 ]  89 -> [ 102@0 ]  91 -> [ 100@0 ]  92 -> [ 10@0 ]  98 -> [ 27@0 46@0 ]  105 -> [ 86@0 ]  107 -> [ 84@0 ]  108 -> [ 7@0 ]  116 -> [ 44@0 ]  121 -> [ 70@0 ]  ].
5 | network_0/router_31/vc_allocator | Input grants = [ 1 -> 78  7 -> 108  8 -> 70  10 -> 92  20 -> 65  27 -> 98  31 -> 74  42 -> 68  44 -> 116  48 -> 66  53 -> 76  65 -> 58  70 -> 121  84 -> 107  86 -> 105  100 -> 91  102 -> 89  106 -> 85  114 -> 77  ], output grants = [ 58 -> 65  65 -> 20  66 -> 48  68 -> 42  70 -> 8  74 -> 31  76 -> 53  77 -> 114  78 -> 1  85 -> 106  89 -> 102  91 -> 100  92 -> 10  98 -> 27  105 -> 86  107 -> 84  108 -> 7  116 -> 44  121 -> 70  ].
5 | network_0/router_31 | Assigning VC 0 at output 29 to VC 1 at input 32.
5 | network_0/router_31 | Completed VC allocation for VC 1 at input 32 (front: 1).
5 | network_0/router_31 |   Acquiring assigned VC 0 at output 29.
5 | network_0/router_31/buf_32/vc_1 | Changing state from vc_alloc to active.
5 | network_0/router_31 | Beginning switch allocation for VC 1 at input 32 (front: 1).
5 | network_0/router_31 |   Requesting output 29.0 (non-spec, pri: 0).
5 | network_0/router_31/sw_allocator | Input requests = [ 0 -> [ 39@0 ]  3 -> [ 54@0 ]  4 -> [ 35@0 ]  5 -> [ 46@0 ]  10 -> [ 32@0 ]  13 -> [ 49@0 ]  15 -> [ 37@0 ]  21 -> [ 34@0 ]  22 -> [ 58@0 ]  24 -> [ 33@0 ]  26 -> [ 38@0 ]  32 -> [ 29@0 ]  35 -> [ 60@0 ]  42 -> [ 53@0 ]  43 -> [ 52@0 ]  50 -> [ 45@0 ]  51 -> [ 44@0 ]  53 -> [ 42@0 ]  57 -> [ 38@0 ]  ], output requests = [ 29 -> [ 32@0 ]  32 -> [ 10@0 ]  33 -> [ 24@0 ]  34 -> [ 21@0 ]  35 -> [ 4@0 ]  37 -> [ 15@0 ]  38 -> [ 26@0 57@0 ]  39 -> [ 0@0 ]  42 -> [ 53@0 ]  44 -> [ 51@0 ]  45 -> [ 50@0 ]  46 -> [ 5@0 ]  49 -> [ 13@0 ]  52 -> [ 43@0 ]  53 -> [ 42@0 ]  54 -> [ 3@0 ]  58 -> [ 22@0 ]  60 -> [ 35@0 ]  ].
5 | network_0/router_31/sw_allocator | Input grants = [ 0 -> 39  3 -> 54  4 -> 35  5 -> 46  10 -> 32  13 -> 49  15 -> 37  21 -> 34  22 -> 58  24 -> 33  26 -> 38  32 -> 29  35 -> 60  42 -> 53  43 -> 52  50 -> 45  51 -> 44  53 -> 42  ], output grants = [ 29 -> 32  32 -> 10  33 -> 24  34 -> 21  35 -> 4  37 -> 15  38 -> 26  39 -> 0  42 -> 53  44 -> 51  45 -> 50  46 -> 5  49 -> 13  52 -> 43  53 -> 42  54 -> 3  58 -> 22  60 -> 35  ].
5 | network_0/router_31 | Assigning output 29.0 to VC 1 at input 32.0.
5 | network_0/router_31 | Completed switch allocation for VC 1 at input 32 (front: 1).
5 | network_0/router_31 |   Scheduling switch connection from input 32.0 to output 29.0.
5 | network_0/router_31 | Beginning crossbar traversal for flit 1 from input 32.0 to output 29.0.
5 | network_0/router_31 | Completed crossbar traversal for flit 1 from input 32.0 to output 29.0.
5 | network_0/router_31 | Buffering flit 1 at output 29.
5 | network_0/router_31 | Sending flit 1 to channel at output 29.
6 | network_0/network_0_fchan_egress1021 | Beginning channel traversal for flit 1 with delay 1.
6 | network_0/network_0_fchan_egress1021 | Completed channel traversal for flit 1.
7 | node1021 | Ejecting flit 1 (packet 1) from VC 0.
7 | node1021 | Injecting credit for VC 0 into subnet 0.
7 | node1021 | Retiring flit 1 (packet 1, src = 2, dest = 1021, hops = 2, flat = 7).
7 | node1021 | Retiring packet 1 (plat = 7, nlat = 7, frag = 0, src = 2, dest = 1021).
Class 0:
Packet latency average = 9.46188
	minimum = 6
	maximum = 57
Network latency average = 9.46188
	minimum = 6
	maximum = 57
Slowest packet = 3431
Flit latency average = 9.46188
	minimum = 6
	maximum = 57
Slowest flit = 3431
Fragmentation average = 0
	minimum = 0
	maximum = 0
Injected packet rate average = 0.300217
	minimum = 0.246 (at node 554)
	maximum = 0.349 (at node 112)
Accepted packet rate average = 0.29739
	minimum = 0.244 (at node 469)
	maximum = 0.345 (at node 911)
Injected flit rate average = 0.300217
	minimum = 0.246 (at node 554)
	maximum = 0.349 (at node 112)
Accepted flit rate average= 0.29739
	minimum = 0.244 (at node 469)
	maximum = 0.345 (at node 911)
Injected packet length average = 1
Accepted packet length average = 1
Total in-flight flits = 2895 (0 measured)
latency change    = 1
throughput change = 1
Class 0:
Packet latency average = 9.42406
	minimum = 6
	maximum = 57
Network latency average = 9.42406
	minimum = 6
	maximum = 57
Slowest packet = 3431
Flit latency average = 9.42406
	minimum = 6
	maximum = 57
Slowest flit = 3431
Fragmentation average = 0
	minimum = 0
	maximum = 0
Injected packet rate average = 0.300232
	minimum = 0.2665 (at node 534)
	maximum = 0.331 (at node 971)
Accepted packet rate average = 0.298811
	minimum = 0.2645 (at node 489)
	maximum = 0.3305 (at node 52)
Injected flit rate average = 0.300232
	minimum = 0.2665 (at node 534)
	maximum = 0.331 (at node 971)
Accepted flit rate average= 0.298811
	minimum = 0.2645 (at node 489)
	maximum = 0.3305 (at node 52)
Injected packet length average = 1
Accepted packet length average = 1
Total in-flight flits = 2910 (0 measured)
latency change    = 0.00401331
throughput change = 0.00475681
Class 0:
Packet latency average = 9.3783
	minimum = 6
	maximum = 48
Network latency average = 9.3783
	minimum = 6
	maximum = 48
Slowest packet = 664437
Flit latency average = 9.3783
	minimum = 6
	maximum = 48
Slowest flit = 664437
Fragmentation average = 0
	minimum = 0
	maximum = 0
Injected packet rate average = 0.299308
	minimum = 0.252 (at node 498)
	maximum = 0.344 (at node 743)
Accepted packet rate average = 0.299272
	minimum = 0.249 (at node 525)
	maximum = 0.342 (at node 280)
Injected flit rate average = 0.299308
	minimum = 0.252 (at node 498)
	maximum = 0.344 (at node 743)
Accepted flit rate average= 0.299272
	minimum = 0.249 (at node 525)
	maximum = 0.342 (at node 280)
Injected packet length average = 1
Accepted packet length average = 1
Total in-flight flits = 2946 (0 measured)
latency change    = 0.00487917
throughput change = 0.00154183
Warmed up ...Time used is 3000 cycles
Class 0:
Packet latency average = 9.37509
	minimum = 6
	maximum = 41
Network latency average = 9.37509
	minimum = 6
	maximum = 41
Slowest packet = 941641
Flit latency average = 9.37734
	minimum = 6
	maximum = 41
Slowest flit = 941641
Fragmentation average = 0
	minimum = 0
	maximum = 0
Injected packet rate average = 0.30043
	minimum = 0.247 (at node 352)
	maximum = 0.34 (at node 645)
Accepted packet rate average = 0.300524
	minimum = 0.247 (at node 671)
	maximum = 0.342 (at node 331)
Injected flit rate average = 0.30043
	minimum = 0.247 (at node 352)
	maximum = 0.34 (at node 645)
Accepted flit rate average= 0.300524
	minimum = 0.247 (at node 671)
	maximum = 0.342 (at node 331)
Injected packet length average = 1
Accepted packet length average = 1
Total in-flight flits = 2849 (2849 measured)
latency change    = 0.000342792
throughput change = 0.00416589
Class 0:
Packet latency average = 9.36948
	minimum = 6
	maximum = 41
Network latency average = 9.36948
	minimum = 6
	maximum = 41
Slowest packet = 941641
Flit latency average = 9.37064
	minimum = 6
	maximum = 41
Slowest flit = 941641
Fragmentation average = 0
	minimum = 0
	maximum = 0
Injected packet rate average = 0.300027
	minimum = 0.2695 (at node 714)
	maximum = 0.331 (at node 356)
Accepted packet rate average = 0.30005
	minimum = 0.2685 (at node 309)
	maximum = 0.331 (at node 984)
Injected flit rate average = 0.300027
	minimum = 0.2695 (at node 714)
	maximum = 0.331 (at node 356)
Accepted flit rate average= 0.30005
	minimum = 0.2685 (at node 309)
	maximum = 0.331 (at node 984)
Injected packet length average = 1
Accepted packet length average = 1
Total in-flight flits = 2898 (2898 measured)
latency change    = 0.000598397
throughput change = 0.00158014
Class 0:
Packet latency average = 9.37094
	minimum = 6
	maximum = 41
Network latency average = 9.37094
	minimum = 6
	maximum = 41
Slowest packet = 941641
Flit latency average = 9.37171
	minimum = 6
	maximum = 41
Slowest flit = 941641
Fragmentation average = 0
	minimum = 0
	maximum = 0
Injected packet rate average = 0.299907
	minimum = 0.277667 (at node 400)
	maximum = 0.323333 (at node 356)
Accepted packet rate average = 0.299939
	minimum = 0.277667 (at node 623)
	maximum = 0.323667 (at node 10)
Injected flit rate average = 0.299907
	minimum = 0.277667 (at node 400)
	maximum = 0.323333 (at node 356)
Accepted flit rate average= 0.299939
	minimum = 0.277667 (at node 623)
	maximum = 0.323667 (at node 10)
Injected packet length average = 1
Accepted packet length average = 1
Total in-flight flits = 2846 (2846 measured)
latency change    = 0.000156219
throughput change = 0.000369541
Draining all recorded packets ...
Draining remaining packets ...
Time taken is 6053 cycles
====== Overall Traffic Statistics ======
====== Traffic class 0 ======
Packet latency average = 9.37217 (1 samples)
	minimum = 6 (1 samples)
	maximum = 41 (1 samples)
Network latency average = 9.37217 (1 samples)
	minimum = 6 (1 samples)
	maximum = 41 (1 samples)
Flit latency average = 9.37326 (1 samples)
	minimum = 6 (1 samples)
	maximum = 41 (1 samples)
Fragmentation average = 0 (1 samples)
	minimum = 0 (1 samples)
	maximum = 0 (1 samples)
Injected packet rate average = 0.299907 (1 samples)
	minimum = 0.277667 (1 samples)
	maximum = 0.323333 (1 samples)
Accepted packet rate average = 0.299939 (1 samples)
	minimum = 0.277667 (1 samples)
	maximum = 0.323667 (1 samples)
Injected flit rate average = 0.299907 (1 samples)
	minimum = 0.277667 (1 samples)
	maximum = 0.323333 (1 samples)
Accepted flit rate average = 0.299939 (1 samples)
	minimum = 0.277667 (1 samples)
	maximum = 0.323667 (1 samples)
Injected packet size average = 1 (1 samples)
Accepted packet size average = 1 (1 samples)
Hops average = 2.89582 (1 samples)
Total run time 5625.07
