BEGIN Configuration File: ../../booksim2/src/examples/flatflyconfig
// $Id$

// Copyright (c) 2007-2015, Trustees of The Leland Stanford Junior University
// All rights reserved.
//
// Redistribution and use in source and binary forms, with or without
// modification, are permitted provided that the following conditions are met:
//
// Redistributions of source code must retain the above copyright notice, this
// list of conditions and the following disclaimer.
// Redistributions in binary form must reproduce the above copyright notice,
// this list of conditions and the following disclaimer in the documentation
// and/or other materials provided with the distribution.
//
// THIS SOFTWARE IS PROVIDED BY THE COPYRIGHT HOLDERS AND CONTRIBUTORS "AS IS"
// AND ANY EXPRESS OR IMPLIED WARRANTIES, INCLUDING, BUT NOT LIMITED TO, THE
// IMPLIED WARRANTIES OF MERCHANTABILITY AND FITNESS FOR A PARTICULAR PURPOSE
// ARE DISCLAIMED. IN NO EVENT SHALL THE COPYRIGHT OWNER OR CONTRIBUTORS BE
// LIABLE FOR ANY DIRECT, INDIRECT, INCIDENTAL, SPECIAL, EXEMPLARY, OR
// CONSEQUENTIAL DAMAGES (INCLUDING, BUT NOT LIMITED TO, PROCUREMENT OF
// SUBSTITUTE GOODS OR SERVICES; LOSS OF USE, DATA, OR PROFITS; OR BUSINESS
// INTERRUPTION) HOWEVER CAUSED AND ON ANY THEORY OF LIABILITY, WHETHER IN
// CONTRACT, STRICT LIABILITY, OR TORT (INCLUDING NEGLIGENCE OR OTHERWISE)
// ARISING IN ANY WAY OUT OF THE USE OF THIS SOFTWARE, EVEN IF ADVISED OF THE
// POSSIBILITY OF SUCH DAMAGE.

//A flattened butterfly configurate file with many tweaks from the
//default settings. 


// Flow control
// Total number of VCs must match the above assignments
num_vcs     = 2;
vc_buf_size = 16;

wait_for_tail_credit = 0;

//
// Router architectureq
//
vc_allocator = islip; 
sw_allocator = islip;
alloc_iters  = 3;

credit_delay   = 0;
routing_delay  = 1;
vc_alloc_delay = 1;
sw_alloc_delay = 1;
st_final_delay = 1;

input_speedup     = 1;
output_speedup    = 1;
internal_speedup  = 1.6;

//
// Traffic
//

warmup_periods = 3;

sample_period  = 1000;  

sim_count          = 1;

traffic       = bitrev;


// Flatfly 
//
// #node = k^(n+1)
//
// x, y, specifies the arrangement of routers in x and y dim
// xr, yr specifiies the arayment of clients in a router
//
topology = flatfly;
subnets = 1;

c  = 16;
k  = 16;
n  = 1;

x  = 16;
y  = 1;
xr = 16;
yr = 1;

use_noc_latency = 0;

//
// Routing
//

routing_function = ugal;

//1: batch mode, 0: injection mode
use_read_write = 0;

//for injection mode
packet_size = 1;
injection_rate = 0.1;

//for batch mode
read_request_size=1;
write_request_size=1;
read_reply_size=1;
write_reply_size=1;

read_request_begin_vc  = 0;
read_request_end_vc    = 3;
write_reply_begin_vc   = 4;
write_reply_end_vc     = 7;
read_reply_begin_vc    = 4;
read_reply_end_vc      = 7;
write_request_begin_vc = 0;
write_request_end_vc   = 3;

//latency: drains all packet, throughput:no drain?
sim_type = latency;

watch_out = -;;END Configuration File: ../../booksim2/src/examples/flatflyconfig
OVERRIDE Parameter: routing_function=ugal
OVERRIDE Parameter: traffic=bitcomp
OVERRIDE Parameter: injection_rate={0.05}
OVERRIDE Parameter: c=32
OVERRIDE Parameter: k=32
OVERRIDE Parameter: x=32
OVERRIDE Parameter: xr=32
OVERRIDE Parameter: sim_type=latency
OVERRIDE Parameter: seed=1
 Flat Bufferfly 
 k = 32 n = 1 c = 32
 each switch - total radix =  63
 # of switches = 32
 # of channels = 992
 # of nodes ( size of network ) = 1024
0 | node5 | Enqueuing flit 1 (packet 1) at time 0.
0 | traffic_manager | Finding output VC for flit 1:
0 | traffic_manager |   Selected output VC 0.
0 | node5 | Injecting flit 1 into subnet 0 at time 0 with priority 0.
1 | network_0/network_0_fchan_ingress5 | Beginning channel traversal for flit 1 with delay 1.
1 | network_0/network_0_fchan_ingress5 | Completed channel traversal for flit 1.
2 | network_0/router_0 | Received flit 1 from channel at input 5.
2 | network_0/router_0 | Adding flit 1 to VC 0 at input 5 (state: idle, empty).
2 | network_0/router_0/buf_5/vc_0 | Changing state from idle to routing.
2 | network_0/router_0 | Beginning routing for VC 0 at input 5 (front: 1).
2 | network_0/router_0 | Completed routing for VC 0 at input 5 (front: 1).
2 | network_0/router_0 |  MIN tmp_out_port: 622 | network_0/router_0 |  NONMIN tmp_out_port: 42
2 | network_0/router_0/buf_5/vc_0 | Changing state from routing to vc_alloc.
2 | network_0/router_0 | Beginning VC allocation for VC 0 at input 5 (front: 1).
2 | network_0/router_0 |   Requesting VC 1 at output 62 (in_pri: 0, out_pri: 0).
2 | network_0/router_0/vc_allocator | Input requests = [ 8 -> [ 125@0 ]  10 -> [ 125@0 ]  ], output requests = [ 125 -> [ 8@0 10@0 ]  ].
2 | network_0/router_0/vc_allocator | Input grants = [ 8 -> 125  ], output grants = [ 125 -> 8  ].
2 | network_0/router_0 | VC allocation failed for VC 0 at input 5.
2 | network_0/router_0 | Completed VC allocation for VC 0 at input 5 (front: 1).
2 | network_0/router_0 |   No output VC allocated.
3 | network_0/router_0 | Beginning VC allocation for VC 0 at input 5 (front: 1).
3 | network_0/router_0 |   Requesting VC 1 at output 62 (in_pri: 0, out_pri: 0).
3 | network_0/router_0/vc_allocator | Input requests = [ 2 -> [ 88@0 ]  9 -> [ 106@0 ]  10 -> [ 125@0 ]  16 -> [ 68@0 ]  ], output requests = [ 68 -> [ 16@0 ]  88 -> [ 2@0 ]  106 -> [ 9@0 ]  125 -> [ 10@0 ]  ].
3 | network_0/router_0/vc_allocator | Input grants = [ 2 -> 88  9 -> 106  10 -> 125  16 -> 68  ], output grants = [ 68 -> 16  88 -> 2  106 -> 9  125 -> 10  ].
3 | network_0/router_0 | Assigning VC 1 at output 62 to VC 0 at input 5.
3 | network_0/router_0 | Completed VC allocation for VC 0 at input 5 (front: 1).
3 | network_0/router_0 |   Acquiring assigned VC 1 at output 62.
3 | network_0/router_0/buf_5/vc_0 | Changing state from vc_alloc to active.
3 | network_0/router_0 | Beginning switch allocation for VC 0 at input 5 (front: 1).
3 | network_0/router_0 |   Requesting output 62.0 (non-spec, pri: 0).
3 | network_0/router_0/sw_allocator | Input requests = [ 1 -> [ 44@0 ]  4 -> [ 53@0 ]  5 -> [ 62@0 ]  8 -> [ 34@0 ]  ], output requests = [ 34 -> [ 8@0 ]  44 -> [ 1@0 ]  53 -> [ 4@0 ]  62 -> [ 5@0 ]  ].
3 | network_0/router_0/sw_allocator | Input grants = [ 1 -> 44  4 -> 53  5 -> 62  8 -> 34  ], output grants = [ 34 -> 8  44 -> 1  53 -> 4  62 -> 5  ].
3 | network_0/router_0 | Assigning output 62.0 to VC 0 at input 5.0.
3 | network_0/router_0 | Completed switch allocation for VC 0 at input 5 (front: 1).
3 | network_0/router_0 |   Scheduling switch connection from input 5.0 to output 62.0.
3 | network_0/router_0 | Beginning crossbar traversal for flit 1 from input 5.0 to output 62.0.
3 | network_0/router_0 | Completed crossbar traversal for flit 1 from input 5.0 to output 62.0.
3 | network_0/router_0 | Buffering flit 1 at output 62.
3 | network_0/router_0 | Sending flit 1 to channel at output 62.
4 | network_0/network_0_fchan_30 | Beginning channel traversal for flit 1 with delay 1.
4 | network_0/network_0_fchan_30 | Completed channel traversal for flit 1.
5 | network_0/router_31 | Received flit 1 from channel at input 32.
5 | network_0/router_31 | Adding flit 1 to VC 1 at input 32 (state: idle, empty).
5 | network_0/router_31/buf_32/vc_1 | Changing state from idle to routing.
5 | network_0/router_31 | Beginning routing for VC 1 at input 32 (front: 1).
5 | network_0/router_31 | Completed routing for VC 1 at input 32 (front: 1).
5 | network_0/router_31/buf_32/vc_1 | Changing state from routing to vc_alloc.
5 | network_0/router_31 | Beginning VC allocation for VC 1 at input 32 (front: 1).
5 | network_0/router_31 |   Requesting VC 0 at output 26 (in_pri: 0, out_pri: 0).
5 | network_0/router_31 |   Requesting VC 1 at output 26 (in_pri: 0, out_pri: 0).
5 | network_0/router_31/vc_allocator | Input requests = [ 6 -> [ 68@0 ]  12 -> [ 122@0 ]  38 -> [ 76@0 ]  65 -> [ 52@0 53@0 ]  ], output requests = [ 52 -> [ 65@0 ]  53 -> [ 65@0 ]  68 -> [ 6@0 ]  76 -> [ 38@0 ]  122 -> [ 12@0 ]  ].
5 | network_0/router_31/vc_allocator | Input grants = [ 6 -> 68  12 -> 122  38 -> 76  65 -> 52  ], output grants = [ 52 -> 65  68 -> 6  76 -> 38  122 -> 12  ].
5 | network_0/router_31 | Assigning VC 0 at output 26 to VC 1 at input 32.
5 | network_0/router_31 | Completed VC allocation for VC 1 at input 32 (front: 1).
5 | network_0/router_31 |   Acquiring assigned VC 0 at output 26.
5 | network_0/router_31/buf_32/vc_1 | Changing state from vc_alloc to active.
5 | network_0/router_31 | Beginning switch allocation for VC 1 at input 32 (front: 1).
5 | network_0/router_31 |   Requesting output 26.0 (non-spec, pri: 0).
5 | network_0/router_31/sw_allocator | Input requests = [ 3 -> [ 34@0 ]  6 -> [ 61@0 ]  19 -> [ 38@0 ]  32 -> [ 26@0 ]  ], output requests = [ 26 -> [ 32@0 ]  34 -> [ 3@0 ]  38 -> [ 19@0 ]  61 -> [ 6@0 ]  ].
5 | network_0/router_31/sw_allocator | Input grants = [ 3 -> 34  6 -> 61  19 -> 38  32 -> 26  ], output grants = [ 26 -> 32  34 -> 3  38 -> 19  61 -> 6  ].
5 | network_0/router_31 | Assigning output 26.0 to VC 1 at input 32.0.
5 | network_0/router_31 | Completed switch allocation for VC 1 at input 32 (front: 1).
5 | network_0/router_31 |   Scheduling switch connection from input 32.0 to output 26.0.
5 | network_0/router_31 | Beginning crossbar traversal for flit 1 from input 32.0 to output 26.0.
5 | network_0/router_31 | Completed crossbar traversal for flit 1 from input 32.0 to output 26.0.
5 | network_0/router_31 | Buffering flit 1 at output 26.
5 | network_0/router_31 | Sending flit 1 to channel at output 26.
6 | network_0/network_0_fchan_egress1018 | Beginning channel traversal for flit 1 with delay 1.
6 | network_0/network_0_fchan_egress1018 | Completed channel traversal for flit 1.
7 | node1018 | Ejecting flit 1 (packet 1) from VC 0.
7 | node1018 | Injecting credit for VC 0 into subnet 0.
7 | node1018 | Retiring flit 1 (packet 1, src = 5, dest = 1018, hops = 2, flat = 7).
7 | node1018 | Retiring packet 1 (plat = 7, nlat = 7, frag = 0, src = 5, dest = 1018).
Class 0:
Packet latency average = 7.61064
	minimum = 6
	maximum = 13
Network latency average = 7.61064
	minimum = 6
	maximum = 13
Slowest packet = 18699
Flit latency average = 7.61064
	minimum = 6
	maximum = 13
Slowest flit = 18699
Fragmentation average = 0
	minimum = 0
	maximum = 0
Injected packet rate average = 0.0500918
	minimum = 0.028 (at node 554)
	maximum = 0.075 (at node 606)
Accepted packet rate average = 0.0497061
	minimum = 0.027 (at node 469)
	maximum = 0.074 (at node 417)
Injected flit rate average = 0.0500918
	minimum = 0.028 (at node 554)
	maximum = 0.075 (at node 606)
Accepted flit rate average= 0.0497061
	minimum = 0.027 (at node 469)
	maximum = 0.074 (at node 417)
Injected packet length average = 1
Accepted packet length average = 1
Total in-flight flits = 395 (0 measured)
latency change    = 1
throughput change = 1
Class 0:
Packet latency average = 7.60873
	minimum = 6
	maximum = 13
Network latency average = 7.60873
	minimum = 6
	maximum = 13
Slowest packet = 18699
Flit latency average = 7.60873
	minimum = 6
	maximum = 13
Slowest flit = 18699
Fragmentation average = 0
	minimum = 0
	maximum = 0
Injected packet rate average = 0.0500894
	minimum = 0.0335 (at node 554)
	maximum = 0.066 (at node 80)
Accepted packet rate average = 0.0499067
	minimum = 0.0335 (at node 469)
	maximum = 0.066 (at node 262)
Injected flit rate average = 0.0500894
	minimum = 0.0335 (at node 554)
	maximum = 0.066 (at node 80)
Accepted flit rate average= 0.0499067
	minimum = 0.0335 (at node 469)
	maximum = 0.066 (at node 262)
Injected packet length average = 1
Accepted packet length average = 1
Total in-flight flits = 374 (0 measured)
latency change    = 0.000250711
throughput change = 0.00402117
Class 0:
Packet latency average = 7.60525
	minimum = 6
	maximum = 13
Network latency average = 7.60525
	minimum = 6
	maximum = 13
Slowest packet = 130955
Flit latency average = 7.60525
	minimum = 6
	maximum = 13
Slowest flit = 130955
Fragmentation average = 0
	minimum = 0
	maximum = 0
Injected packet rate average = 0.0500332
	minimum = 0.029 (at node 983)
	maximum = 0.073 (at node 644)
Accepted packet rate average = 0.05
	minimum = 0.029 (at node 40)
	maximum = 0.073 (at node 379)
Injected flit rate average = 0.0500332
	minimum = 0.029 (at node 983)
	maximum = 0.073 (at node 644)
Accepted flit rate average= 0.05
	minimum = 0.029 (at node 40)
	maximum = 0.073 (at node 379)
Injected packet length average = 1
Accepted packet length average = 1
Total in-flight flits = 408 (0 measured)
latency change    = 0.000457471
throughput change = 0.00186523
Warmed up ...Time used is 3000 cycles
Class 0:
Packet latency average = 7.61321
	minimum = 6
	maximum = 14
Network latency average = 7.61321
	minimum = 6
	maximum = 14
Slowest packet = 199979
Flit latency average = 7.61413
	minimum = 6
	maximum = 14
Slowest flit = 199979
Fragmentation average = 0
	minimum = 0
	maximum = 0
Injected packet rate average = 0.0500742
	minimum = 0.031 (at node 566)
	maximum = 0.073 (at node 25)
Accepted packet rate average = 0.0501221
	minimum = 0.031 (at node 222)
	maximum = 0.072 (at node 1)
Injected flit rate average = 0.0500742
	minimum = 0.031 (at node 566)
	maximum = 0.073 (at node 25)
Accepted flit rate average= 0.0501221
	minimum = 0.031 (at node 222)
	maximum = 0.072 (at node 1)
Injected packet length average = 1
Accepted packet length average = 1
Total in-flight flits = 359 (359 measured)
latency change    = 0.00104552
throughput change = 0.00243546
Class 0:
Packet latency average = 7.6106
	minimum = 6
	maximum = 14
Network latency average = 7.6106
	minimum = 6
	maximum = 14
Slowest packet = 199979
Flit latency average = 7.61107
	minimum = 6
	maximum = 14
Slowest flit = 199979
Fragmentation average = 0
	minimum = 0
	maximum = 0
Injected packet rate average = 0.0501709
	minimum = 0.0355 (at node 566)
	maximum = 0.065 (at node 250)
Accepted packet rate average = 0.0501836
	minimum = 0.0355 (at node 457)
	maximum = 0.0655 (at node 370)
Injected flit rate average = 0.0501709
	minimum = 0.0355 (at node 566)
	maximum = 0.065 (at node 250)
Accepted flit rate average= 0.0501836
	minimum = 0.0355 (at node 457)
	maximum = 0.0655 (at node 370)
Injected packet length average = 1
Accepted packet length average = 1
Total in-flight flits = 382 (382 measured)
latency change    = 0.000343296
throughput change = 0.00122597
Class 0:
Packet latency average = 7.60933
	minimum = 6
	maximum = 14
Network latency average = 7.60933
	minimum = 6
	maximum = 14
Slowest packet = 199979
Flit latency average = 7.60964
	minimum = 6
	maximum = 14
Slowest flit = 199979
Fragmentation average = 0
	minimum = 0
	maximum = 0
Injected packet rate average = 0.0502679
	minimum = 0.0393333 (at node 840)
	maximum = 0.0633333 (at node 785)
Accepted packet rate average = 0.0502764
	minimum = 0.0393333 (at node 183)
	maximum = 0.0636667 (at node 238)
Injected flit rate average = 0.0502679
	minimum = 0.0393333 (at node 840)
	maximum = 0.0633333 (at node 785)
Accepted flit rate average= 0.0502764
	minimum = 0.0393333 (at node 183)
	maximum = 0.0636667 (at node 238)
Injected packet length average = 1
Accepted packet length average = 1
Total in-flight flits = 382 (382 measured)
latency change    = 0.000166859
throughput change = 0.00184527
Draining all recorded packets ...
Draining remaining packets ...
Time taken is 6021 cycles
====== Overall Traffic Statistics ======
====== Traffic class 0 ======
Packet latency average = 7.60952 (1 samples)
	minimum = 6 (1 samples)
	maximum = 14 (1 samples)
Network latency average = 7.60952 (1 samples)
	minimum = 6 (1 samples)
	maximum = 14 (1 samples)
Flit latency average = 7.6099 (1 samples)
	minimum = 6 (1 samples)
	maximum = 14 (1 samples)
Fragmentation average = 0 (1 samples)
	minimum = 0 (1 samples)
	maximum = 0 (1 samples)
Injected packet rate average = 0.0502679 (1 samples)
	minimum = 0.0393333 (1 samples)
	maximum = 0.0633333 (1 samples)
Accepted packet rate average = 0.0502764 (1 samples)
	minimum = 0.0393333 (1 samples)
	maximum = 0.0636667 (1 samples)
Injected flit rate average = 0.0502679 (1 samples)
	minimum = 0.0393333 (1 samples)
	maximum = 0.0633333 (1 samples)
Accepted flit rate average = 0.0502764 (1 samples)
	minimum = 0.0393333 (1 samples)
	maximum = 0.0636667 (1 samples)
Injected packet size average = 1 (1 samples)
Accepted packet size average = 1 (1 samples)
Hops average = 2.68834 (1 samples)
Total run time 1195.33
