BEGIN Configuration File: ../../booksim2/src/examples/flatflyconfig
// $Id$

// Copyright (c) 2007-2015, Trustees of The Leland Stanford Junior University
// All rights reserved.
//
// Redistribution and use in source and binary forms, with or without
// modification, are permitted provided that the following conditions are met:
//
// Redistributions of source code must retain the above copyright notice, this
// list of conditions and the following disclaimer.
// Redistributions in binary form must reproduce the above copyright notice,
// this list of conditions and the following disclaimer in the documentation
// and/or other materials provided with the distribution.
//
// THIS SOFTWARE IS PROVIDED BY THE COPYRIGHT HOLDERS AND CONTRIBUTORS "AS IS"
// AND ANY EXPRESS OR IMPLIED WARRANTIES, INCLUDING, BUT NOT LIMITED TO, THE
// IMPLIED WARRANTIES OF MERCHANTABILITY AND FITNESS FOR A PARTICULAR PURPOSE
// ARE DISCLAIMED. IN NO EVENT SHALL THE COPYRIGHT OWNER OR CONTRIBUTORS BE
// LIABLE FOR ANY DIRECT, INDIRECT, INCIDENTAL, SPECIAL, EXEMPLARY, OR
// CONSEQUENTIAL DAMAGES (INCLUDING, BUT NOT LIMITED TO, PROCUREMENT OF
// SUBSTITUTE GOODS OR SERVICES; LOSS OF USE, DATA, OR PROFITS; OR BUSINESS
// INTERRUPTION) HOWEVER CAUSED AND ON ANY THEORY OF LIABILITY, WHETHER IN
// CONTRACT, STRICT LIABILITY, OR TORT (INCLUDING NEGLIGENCE OR OTHERWISE)
// ARISING IN ANY WAY OUT OF THE USE OF THIS SOFTWARE, EVEN IF ADVISED OF THE
// POSSIBILITY OF SUCH DAMAGE.

//A flattened butterfly configurate file with many tweaks from the
//default settings. 


// Flow control
// Total number of VCs must match the above assignments
num_vcs     = 2;
vc_buf_size = 16;

wait_for_tail_credit = 0;

//
// Router architectureq
//
vc_allocator = islip; 
sw_allocator = islip;
alloc_iters  = 3;

credit_delay   = 0;
routing_delay  = 1;
vc_alloc_delay = 1;
sw_alloc_delay = 1;
st_final_delay = 1;

input_speedup     = 1;
output_speedup    = 1;
internal_speedup  = 1.6;

//
// Traffic
//

warmup_periods = 3;

sample_period  = 1000;  

sim_count          = 1;

traffic       = bitrev;


// Flatfly 
//
// #node = k^(n+1)
//
// x, y, specifies the arrangement of routers in x and y dim
// xr, yr specifiies the arayment of clients in a router
//
topology = flatfly;
subnets = 1;

c  = 16;
k  = 16;
n  = 1;

x  = 16;
y  = 1;
xr = 16;
yr = 1;

use_noc_latency = 0;

//
// Routing
//

routing_function = ugal;

//1: batch mode, 0: injection mode
use_read_write = 0;

//for injection mode
packet_size = 1;
injection_rate = 0.1;

//for batch mode
read_request_size=1;
write_request_size=1;
read_reply_size=1;
write_reply_size=1;

read_request_begin_vc  = 0;
read_request_end_vc    = 3;
write_reply_begin_vc   = 4;
write_reply_end_vc     = 7;
read_reply_begin_vc    = 4;
read_reply_end_vc      = 7;
write_request_begin_vc = 0;
write_request_end_vc   = 3;

//latency: drains all packet, throughput:no drain?
sim_type = latency;

watch_out = -;;END Configuration File: ../../booksim2/src/examples/flatflyconfig
OVERRIDE Parameter: routing_function=ugal
OVERRIDE Parameter: traffic=uniform
OVERRIDE Parameter: injection_rate={0.4}
OVERRIDE Parameter: c=32
OVERRIDE Parameter: k=32
OVERRIDE Parameter: x=32
OVERRIDE Parameter: xr=32
OVERRIDE Parameter: sim_type=latency
OVERRIDE Parameter: seed=1
 Flat Bufferfly 
 k = 32 n = 1 c = 32
 each switch - total radix =  63
 # of switches = 32
 # of channels = 992
 # of nodes ( size of network ) = 1024
0 | node1 | Enqueuing flit 1 (packet 1) at time 0.
0 | traffic_manager | Finding output VC for flit 1:
0 | traffic_manager |   Selected output VC 0.
0 | node1 | Injecting flit 1 into subnet 0 at time 0 with priority 0.
1 | network_0/network_0_fchan_ingress1 | Beginning channel traversal for flit 1 with delay 1.
1 | network_0/network_0_fchan_ingress1 | Completed channel traversal for flit 1.
2 | network_0/router_0 | Received flit 1 from channel at input 1.
2 | network_0/router_0 | Adding flit 1 to VC 0 at input 1 (state: idle, empty).
2 | network_0/router_0/buf_1/vc_0 | Changing state from idle to routing.
2 | network_0/router_0 | Beginning routing for VC 0 at input 1 (front: 1).
2 | network_0/router_0 | Completed routing for VC 0 at input 1 (front: 1).
2 | network_0/router_0 |  MIN tmp_out_port: 412 | network_0/router_0 |  NONMIN tmp_out_port: 38
2 | network_0/router_0/buf_1/vc_0 | Changing state from routing to vc_alloc.
2 | network_0/router_0 | Beginning VC allocation for VC 0 at input 1 (front: 1).
2 | network_0/router_0 |   Requesting VC 1 at output 41 (in_pri: 0, out_pri: 0).
2 | network_0/router_0/vc_allocator | Input requests = [ 0 -> [ 95@0 ]  2 -> [ 83@0 ]  4 -> [ 91@0 ]  6 -> [ 79@0 ]  8 -> [ 113@0 ]  10 -> [ 69@0 ]  12 -> [ 87@0 ]  14 -> [ 107@0 ]  16 -> [ 73@0 ]  20 -> [ 75@0 ]  26 -> [ 113@0 ]  32 -> [ 95@0 ]  40 -> [ 121@0 ]  52 -> [ 101@0 ]  56 -> [ 89@0 ]  ], output requests = [ 69 -> [ 10@0 ]  73 -> [ 16@0 ]  75 -> [ 20@0 ]  79 -> [ 6@0 ]  83 -> [ 2@0 ]  87 -> [ 12@0 ]  89 -> [ 56@0 ]  91 -> [ 4@0 ]  95 -> [ 0@0 32@0 ]  101 -> [ 52@0 ]  107 -> [ 14@0 ]  113 -> [ 8@0 26@0 ]  121 -> [ 40@0 ]  ].
2 | network_0/router_0/vc_allocator | Input grants = [ 0 -> 95  2 -> 83  4 -> 91  6 -> 79  8 -> 113  10 -> 69  12 -> 87  14 -> 107  16 -> 73  20 -> 75  40 -> 121  52 -> 101  56 -> 89  ], output grants = [ 69 -> 10  73 -> 16  75 -> 20  79 -> 6  83 -> 2  87 -> 12  89 -> 56  91 -> 4  95 -> 0  101 -> 52  107 -> 14  113 -> 8  121 -> 40  ].
2 | network_0/router_0 | Assigning VC 1 at output 41 to VC 0 at input 1.
2 | network_0/router_0 | Completed VC allocation for VC 0 at input 1 (front: 1).
2 | network_0/router_0 |   Acquiring assigned VC 1 at output 41.
2 | network_0/router_0/buf_1/vc_0 | Changing state from vc_alloc to active.
2 | network_0/router_0 | Beginning switch allocation for VC 0 at input 1 (front: 1).
2 | network_0/router_0 |   Requesting output 41.0 (non-spec, pri: 0).
2 | network_0/router_0/sw_allocator | Input requests = [ 0 -> [ 47@0 ]  1 -> [ 41@0 ]  2 -> [ 45@0 ]  3 -> [ 39@0 ]  4 -> [ 56@0 ]  5 -> [ 34@0 ]  6 -> [ 43@0 ]  7 -> [ 53@0 ]  8 -> [ 36@0 ]  10 -> [ 37@0 ]  20 -> [ 60@0 ]  26 -> [ 50@0 ]  28 -> [ 44@0 ]  ], output requests = [ 34 -> [ 5@0 ]  36 -> [ 8@0 ]  37 -> [ 10@0 ]  39 -> [ 3@0 ]  41 -> [ 1@0 ]  43 -> [ 6@0 ]  44 -> [ 28@0 ]  45 -> [ 2@0 ]  47 -> [ 0@0 ]  50 -> [ 26@0 ]  53 -> [ 7@0 ]  56 -> [ 4@0 ]  60 -> [ 20@0 ]  ].
2 | network_0/router_0/sw_allocator | Input grants = [ 0 -> 47  1 -> 41  2 -> 45  3 -> 39  4 -> 56  5 -> 34  6 -> 43  7 -> 53  8 -> 36  10 -> 37  20 -> 60  26 -> 50  28 -> 44  ], output grants = [ 34 -> 5  36 -> 8  37 -> 10  39 -> 3  41 -> 1  43 -> 6  44 -> 28  45 -> 2  47 -> 0  50 -> 26  53 -> 7  56 -> 4  60 -> 20  ].
2 | network_0/router_0 | Assigning output 41.0 to VC 0 at input 1.0.
2 | network_0/router_0 | Completed switch allocation for VC 0 at input 1 (front: 1).
2 | network_0/router_0 |   Scheduling switch connection from input 1.0 to output 41.0.
2 | network_0/router_0 | Beginning crossbar traversal for flit 1 from input 1.0 to output 41.0.
2 | network_0/router_0 | Completed crossbar traversal for flit 1 from input 1.0 to output 41.0.
2 | network_0/router_0 | Buffering flit 1 at output 41.
2 | network_0/router_0 | Sending flit 1 to channel at output 41.
3 | network_0/network_0_fchan_9 | Beginning channel traversal for flit 1 with delay 1.
3 | network_0/network_0_fchan_9 | Completed channel traversal for flit 1.
4 | network_0/router_10 | Received flit 1 from channel at input 32.
4 | network_0/router_10 | Adding flit 1 to VC 1 at input 32 (state: idle, empty).
4 | network_0/router_10/buf_32/vc_1 | Changing state from idle to routing.
4 | network_0/router_10 | Beginning routing for VC 1 at input 32 (front: 1).
4 | network_0/router_10 | Completed routing for VC 1 at input 32 (front: 1).
4 | network_0/router_10/buf_32/vc_1 | Changing state from routing to vc_alloc.
4 | network_0/router_10 | Beginning VC allocation for VC 1 at input 32 (front: 1).
4 | network_0/router_10 |   Requesting VC 0 at output 25 (in_pri: 0, out_pri: 0).
4 | network_0/router_10 |   Requesting VC 1 at output 25 (in_pri: 0, out_pri: 0).
4 | network_0/router_10/vc_allocator | Input requests = [ 2 -> [ 71@0 ]  9 -> [ 68@0 ]  11 -> [ 115@0 ]  12 -> [ 123@0 ]  17 -> [ 76@0 ]  25 -> [ 109@0 ]  28 -> [ 79@0 ]  30 -> [ 83@0 ]  32 -> [ 91@0 ]  37 -> [ 111@0 ]  40 -> [ 67@0 ]  43 -> [ 83@0 ]  46 -> [ 81@0 ]  50 -> [ 87@0 ]  52 -> [ 111@0 ]  56 -> [ 104@0 ]  59 -> [ 123@0 ]  62 -> [ 75@0 ]  65 -> [ 50@0 51@0 ]  73 -> [ 40@0 41@0 ]  75 -> [ 6@0 7@0 ]  79 -> [ 20@0 21@0 ]  81 -> [ 60@0 61@0 ]  83 -> [ 50@0 51@0 ]  93 -> [ 34@0 35@0 ]  103 -> [ 16@0 17@0 ]  105 -> [ 8@0 9@0 ]  109 -> [ 18@0 19@0 ]  111 -> [ 40@0 41@0 ]  123 -> [ 58@0 59@0 ]  125 -> [ 34@0 35@0 ]  ], output requests = [ 6 -> [ 75@0 ]  7 -> [ 75@0 ]  8 -> [ 105@0 ]  9 -> [ 105@0 ]  16 -> [ 103@0 ]  17 -> [ 103@0 ]  18 -> [ 109@0 ]  19 -> [ 109@0 ]  20 -> [ 79@0 ]  21 -> [ 79@0 ]  34 -> [ 93@0 125@0 ]  35 -> [ 93@0 125@0 ]  40 -> [ 73@0 111@0 ]  41 -> [ 73@0 111@0 ]  50 -> [ 65@0 83@0 ]  51 -> [ 65@0 83@0 ]  58 -> [ 123@0 ]  59 -> [ 123@0 ]  60 -> [ 81@0 ]  61 -> [ 81@0 ]  67 -> [ 40@0 ]  68 -> [ 9@0 ]  71 -> [ 2@0 ]  75 -> [ 62@0 ]  76 -> [ 17@0 ]  79 -> [ 28@0 ]  81 -> [ 46@0 ]  83 -> [ 30@0 43@0 ]  87 -> [ 50@0 ]  91 -> [ 32@0 ]  104 -> [ 56@0 ]  109 -> [ 25@0 ]  111 -> [ 37@0 52@0 ]  115 -> [ 11@0 ]  123 -> [ 12@0 59@0 ]  ].
4 | network_0/router_10/vc_allocator | Input grants = [ 2 -> 71  9 -> 68  11 -> 115  12 -> 123  17 -> 76  25 -> 109  28 -> 79  30 -> 83  32 -> 91  37 -> 111  40 -> 67  46 -> 81  50 -> 87  56 -> 104  62 -> 75  65 -> 50  73 -> 40  75 -> 6  79 -> 20  81 -> 60  93 -> 34  103 -> 16  105 -> 8  109 -> 18  123 -> 58  ], output grants = [ 6 -> 75  8 -> 105  16 -> 103  18 -> 109  20 -> 79  34 -> 93  40 -> 73  50 -> 65  58 -> 123  60 -> 81  67 -> 40  68 -> 9  71 -> 2  75 -> 62  76 -> 17  79 -> 28  81 -> 46  83 -> 30  87 -> 50  91 -> 32  104 -> 56  109 -> 25  111 -> 37  115 -> 11  123 -> 12  ].
4 | network_0/router_10 | Assigning VC 0 at output 25 to VC 1 at input 32.
4 | network_0/router_10 | Completed VC allocation for VC 1 at input 32 (front: 1).
4 | network_0/router_10 |   Acquiring assigned VC 0 at output 25.
4 | network_0/router_10/buf_32/vc_1 | Changing state from vc_alloc to active.
4 | network_0/router_10 | Beginning switch allocation for VC 1 at input 32 (front: 1).
4 | network_0/router_10 |   Requesting output 25.0 (non-spec, pri: 0).
4 | network_0/router_10/sw_allocator | Input requests = [ 1 -> [ 35@0 ]  4 -> [ 34@0 ]  5 -> [ 57@0 ]  6 -> [ 61@0 ]  8 -> [ 38@0 ]  12 -> [ 54@0 ]  14 -> [ 39@0 ]  15 -> [ 41@0 ]  16 -> [ 45@0 ]  18 -> [ 55@0 ]  20 -> [ 33@0 ]  23 -> [ 40@0 ]  25 -> [ 43@0 ]  28 -> [ 52@0 ]  31 -> [ 37@0 ]  32 -> [ 25@0 ]  36 -> [ 20@0 ]  37 -> [ 3@0 ]  39 -> [ 10@0 ]  40 -> [ 30@0 ]  46 -> [ 17@0 ]  51 -> [ 8@0 ]  52 -> [ 4@0 ]  54 -> [ 9@0 ]  61 -> [ 29@0 ]  ], output requests = [ 3 -> [ 37@0 ]  4 -> [ 52@0 ]  8 -> [ 51@0 ]  9 -> [ 54@0 ]  10 -> [ 39@0 ]  17 -> [ 46@0 ]  20 -> [ 36@0 ]  25 -> [ 32@0 ]  29 -> [ 61@0 ]  30 -> [ 40@0 ]  33 -> [ 20@0 ]  34 -> [ 4@0 ]  35 -> [ 1@0 ]  37 -> [ 31@0 ]  38 -> [ 8@0 ]  39 -> [ 14@0 ]  40 -> [ 23@0 ]  41 -> [ 15@0 ]  43 -> [ 25@0 ]  45 -> [ 16@0 ]  52 -> [ 28@0 ]  54 -> [ 12@0 ]  55 -> [ 18@0 ]  57 -> [ 5@0 ]  61 -> [ 6@0 ]  ].
4 | network_0/router_10/sw_allocator | Input grants = [ 1 -> 35  4 -> 34  5 -> 57  6 -> 61  8 -> 38  12 -> 54  14 -> 39  15 -> 41  16 -> 45  18 -> 55  20 -> 33  23 -> 40  25 -> 43  28 -> 52  31 -> 37  32 -> 25  36 -> 20  37 -> 3  39 -> 10  40 -> 30  46 -> 17  51 -> 8  52 -> 4  54 -> 9  61 -> 29  ], output grants = [ 3 -> 37  4 -> 52  8 -> 51  9 -> 54  10 -> 39  17 -> 46  20 -> 36  25 -> 32  29 -> 61  30 -> 40  33 -> 20  34 -> 4  35 -> 1  37 -> 31  38 -> 8  39 -> 14  40 -> 23  41 -> 15  43 -> 25  45 -> 16  52 -> 28  54 -> 12  55 -> 18  57 -> 5  61 -> 6  ].
4 | network_0/router_10 | Assigning output 25.0 to VC 1 at input 32.0.
4 | network_0/router_10 | Completed switch allocation for VC 1 at input 32 (front: 1).
4 | network_0/router_10 |   Scheduling switch connection from input 32.0 to output 25.0.
4 | network_0/router_10 | Beginning crossbar traversal for flit 1 from input 32.0 to output 25.0.
4 | network_0/router_10 | Completed crossbar traversal for flit 1 from input 32.0 to output 25.0.
4 | network_0/router_10 | Buffering flit 1 at output 25.
4 | network_0/router_10 | Sending flit 1 to channel at output 25.
5 | network_0/network_0_fchan_egress345 | Beginning channel traversal for flit 1 with delay 1.
5 | network_0/network_0_fchan_egress345 | Completed channel traversal for flit 1.
6 | node345 | Ejecting flit 1 (packet 1) from VC 0.
6 | node345 | Injecting credit for VC 0 into subnet 0.
6 | node345 | Retiring flit 1 (packet 1, src = 1, dest = 345, hops = 2, flat = 6).
6 | node345 | Retiring packet 1 (plat = 6, nlat = 6, frag = 0, src = 1, dest = 345).
Class 0:
Packet latency average = 7.09068
	minimum = 4
	maximum = 19
Network latency average = 7.09068
	minimum = 4
	maximum = 19
Slowest packet = 10262
Flit latency average = 7.09068
	minimum = 4
	maximum = 19
Slowest flit = 10262
Fragmentation average = 0
	minimum = 0
	maximum = 0
Injected packet rate average = 0.400106
	minimum = 0.353 (at node 10)
	maximum = 0.456 (at node 112)
Accepted packet rate average = 0.39728
	minimum = 0.336 (at node 465)
	maximum = 0.47 (at node 761)
Injected flit rate average = 0.400106
	minimum = 0.353 (at node 10)
	maximum = 0.456 (at node 112)
Accepted flit rate average= 0.39728
	minimum = 0.336 (at node 465)
	maximum = 0.47 (at node 761)
Injected packet length average = 1
Accepted packet length average = 1
Total in-flight flits = 2894 (0 measured)
latency change    = 1
throughput change = 1
Class 0:
Packet latency average = 7.09462
	minimum = 4
	maximum = 19
Network latency average = 7.09462
	minimum = 4
	maximum = 19
Slowest packet = 10262
Flit latency average = 7.09462
	minimum = 4
	maximum = 19
Slowest flit = 10262
Fragmentation average = 0
	minimum = 0
	maximum = 0
Injected packet rate average = 0.400161
	minimum = 0.361 (at node 710)
	maximum = 0.4325 (at node 850)
Accepted packet rate average = 0.398743
	minimum = 0.3545 (at node 405)
	maximum = 0.458 (at node 329)
Injected flit rate average = 0.400161
	minimum = 0.361 (at node 710)
	maximum = 0.4325 (at node 850)
Accepted flit rate average= 0.398743
	minimum = 0.3545 (at node 405)
	maximum = 0.458 (at node 329)
Injected packet length average = 1
Accepted packet length average = 1
Total in-flight flits = 2904 (0 measured)
latency change    = 0.000555317
throughput change = 0.00366875
Class 0:
Packet latency average = 7.08875
	minimum = 4
	maximum = 18
Network latency average = 7.08875
	minimum = 4
	maximum = 18
Slowest packet = 837371
Flit latency average = 7.08875
	minimum = 4
	maximum = 18
Slowest flit = 837371
Fragmentation average = 0
	minimum = 0
	maximum = 0
Injected packet rate average = 0.398995
	minimum = 0.358 (at node 339)
	maximum = 0.448 (at node 445)
Accepted packet rate average = 0.398899
	minimum = 0.332 (at node 948)
	maximum = 0.458 (at node 786)
Injected flit rate average = 0.398995
	minimum = 0.358 (at node 339)
	maximum = 0.448 (at node 445)
Accepted flit rate average= 0.398899
	minimum = 0.332 (at node 948)
	maximum = 0.458 (at node 786)
Injected packet length average = 1
Accepted packet length average = 1
Total in-flight flits = 3002 (0 measured)
latency change    = 0.00082873
throughput change = 0.000391703
Warmed up ...Time used is 3000 cycles
Class 0:
Packet latency average = 7.09507
	minimum = 4
	maximum = 20
Network latency average = 7.09507
	minimum = 4
	maximum = 20
Slowest packet = 1517230
Flit latency average = 7.09765
	minimum = 4
	maximum = 20
Slowest flit = 1517230
Fragmentation average = 0
	minimum = 0
	maximum = 0
Injected packet rate average = 0.400338
	minimum = 0.359 (at node 352)
	maximum = 0.452 (at node 261)
Accepted packet rate average = 0.400446
	minimum = 0.346 (at node 802)
	maximum = 0.47 (at node 10)
Injected flit rate average = 0.400338
	minimum = 0.359 (at node 352)
	maximum = 0.452 (at node 261)
Accepted flit rate average= 0.400446
	minimum = 0.346 (at node 802)
	maximum = 0.47 (at node 10)
Injected packet length average = 1
Accepted packet length average = 1
Total in-flight flits = 2891 (2891 measured)
latency change    = 0.000891194
throughput change = 0.00386288
Class 0:
Packet latency average = 7.09265
	minimum = 4
	maximum = 21
Network latency average = 7.09265
	minimum = 4
	maximum = 21
Slowest packet = 1847860
Flit latency average = 7.09395
	minimum = 4
	maximum = 21
Slowest flit = 1847860
Fragmentation average = 0
	minimum = 0
	maximum = 0
Injected packet rate average = 0.400015
	minimum = 0.367 (at node 714)
	maximum = 0.435 (at node 39)
Accepted packet rate average = 0.40007
	minimum = 0.3595 (at node 546)
	maximum = 0.437 (at node 188)
Injected flit rate average = 0.400015
	minimum = 0.367 (at node 714)
	maximum = 0.435 (at node 39)
Accepted flit rate average= 0.40007
	minimum = 0.3595 (at node 546)
	maximum = 0.437 (at node 188)
Injected packet length average = 1
Accepted packet length average = 1
Total in-flight flits = 2888 (2888 measured)
latency change    = 0.000341656
throughput change = 0.000939776
Class 0:
Packet latency average = 7.093
	minimum = 4
	maximum = 21
Network latency average = 7.093
	minimum = 4
	maximum = 21
Slowest packet = 1847860
Flit latency average = 7.09387
	minimum = 4
	maximum = 21
Slowest flit = 1847860
Fragmentation average = 0
	minimum = 0
	maximum = 0
Injected packet rate average = 0.399895
	minimum = 0.375333 (at node 558)
	maximum = 0.428333 (at node 536)
Accepted packet rate average = 0.399929
	minimum = 0.358667 (at node 546)
	maximum = 0.440333 (at node 425)
Injected flit rate average = 0.399895
	minimum = 0.375333 (at node 558)
	maximum = 0.428333 (at node 536)
Accepted flit rate average= 0.399929
	minimum = 0.358667 (at node 546)
	maximum = 0.440333 (at node 425)
Injected packet length average = 1
Accepted packet length average = 1
Total in-flight flits = 2897 (2897 measured)
latency change    = 5.02868e-05
throughput change = 0.000353253
Draining all recorded packets ...
Draining remaining packets ...
Time taken is 6028 cycles
====== Overall Traffic Statistics ======
====== Traffic class 0 ======
Packet latency average = 7.09375 (1 samples)
	minimum = 4 (1 samples)
	maximum = 21 (1 samples)
Network latency average = 7.09375 (1 samples)
	minimum = 4 (1 samples)
	maximum = 21 (1 samples)
Flit latency average = 7.09444 (1 samples)
	minimum = 4 (1 samples)
	maximum = 21 (1 samples)
Fragmentation average = 0 (1 samples)
	minimum = 0 (1 samples)
	maximum = 0 (1 samples)
Injected packet rate average = 0.399895 (1 samples)
	minimum = 0.375333 (1 samples)
	maximum = 0.428333 (1 samples)
Accepted packet rate average = 0.399929 (1 samples)
	minimum = 0.358667 (1 samples)
	maximum = 0.440333 (1 samples)
Injected flit rate average = 0.399895 (1 samples)
	minimum = 0.375333 (1 samples)
	maximum = 0.428333 (1 samples)
Accepted flit rate average = 0.399929 (1 samples)
	minimum = 0.358667 (1 samples)
	maximum = 0.440333 (1 samples)
Injected packet size average = 1 (1 samples)
Accepted packet size average = 1 (1 samples)
Hops average = 2.14718 (1 samples)
Total run time 5631.55
