BEGIN Configuration File: ../../booksim2/src/examples/flatflyconfig
// $Id$

// Copyright (c) 2007-2015, Trustees of The Leland Stanford Junior University
// All rights reserved.
//
// Redistribution and use in source and binary forms, with or without
// modification, are permitted provided that the following conditions are met:
//
// Redistributions of source code must retain the above copyright notice, this
// list of conditions and the following disclaimer.
// Redistributions in binary form must reproduce the above copyright notice,
// this list of conditions and the following disclaimer in the documentation
// and/or other materials provided with the distribution.
//
// THIS SOFTWARE IS PROVIDED BY THE COPYRIGHT HOLDERS AND CONTRIBUTORS "AS IS"
// AND ANY EXPRESS OR IMPLIED WARRANTIES, INCLUDING, BUT NOT LIMITED TO, THE
// IMPLIED WARRANTIES OF MERCHANTABILITY AND FITNESS FOR A PARTICULAR PURPOSE
// ARE DISCLAIMED. IN NO EVENT SHALL THE COPYRIGHT OWNER OR CONTRIBUTORS BE
// LIABLE FOR ANY DIRECT, INDIRECT, INCIDENTAL, SPECIAL, EXEMPLARY, OR
// CONSEQUENTIAL DAMAGES (INCLUDING, BUT NOT LIMITED TO, PROCUREMENT OF
// SUBSTITUTE GOODS OR SERVICES; LOSS OF USE, DATA, OR PROFITS; OR BUSINESS
// INTERRUPTION) HOWEVER CAUSED AND ON ANY THEORY OF LIABILITY, WHETHER IN
// CONTRACT, STRICT LIABILITY, OR TORT (INCLUDING NEGLIGENCE OR OTHERWISE)
// ARISING IN ANY WAY OUT OF THE USE OF THIS SOFTWARE, EVEN IF ADVISED OF THE
// POSSIBILITY OF SUCH DAMAGE.

//A flattened butterfly configurate file with many tweaks from the
//default settings. 


// Flow control
// Total number of VCs must match the above assignments
num_vcs     = 2;
vc_buf_size = 16;

wait_for_tail_credit = 0;

//
// Router architectureq
//
vc_allocator = islip; 
sw_allocator = islip;
alloc_iters  = 3;

credit_delay   = 0;
routing_delay  = 1;
vc_alloc_delay = 1;
sw_alloc_delay = 1;
st_final_delay = 1;

input_speedup     = 1;
output_speedup    = 1;
internal_speedup  = 1.6;

//
// Traffic
//

warmup_periods = 3;

sample_period  = 1000;  

sim_count          = 1;

traffic       = bitrev;


// Flatfly 
//
// #node = k^(n+1)
//
// x, y, specifies the arrangement of routers in x and y dim
// xr, yr specifiies the arayment of clients in a router
//
topology = flatfly;
subnets = 1;

c  = 16;
k  = 16;
n  = 1;

x  = 16;
y  = 1;
xr = 16;
yr = 1;

use_noc_latency = 0;

//
// Routing
//

routing_function = ugal;

//1: batch mode, 0: injection mode
use_read_write = 0;

//for injection mode
packet_size = 1;
injection_rate = 0.1;

//for batch mode
read_request_size=1;
write_request_size=1;
read_reply_size=1;
write_reply_size=1;

read_request_begin_vc  = 0;
read_request_end_vc    = 3;
write_reply_begin_vc   = 4;
write_reply_end_vc     = 7;
read_reply_begin_vc    = 4;
read_reply_end_vc      = 7;
write_request_begin_vc = 0;
write_request_end_vc   = 3;

//latency: drains all packet, throughput:no drain?
sim_type = latency;

watch_out = -;;END Configuration File: ../../booksim2/src/examples/flatflyconfig
OVERRIDE Parameter: routing_function=ugal
OVERRIDE Parameter: traffic=bitcomp
OVERRIDE Parameter: injection_rate={0.075}
OVERRIDE Parameter: c=32
OVERRIDE Parameter: k=32
OVERRIDE Parameter: x=32
OVERRIDE Parameter: xr=32
OVERRIDE Parameter: sim_type=latency
OVERRIDE Parameter: seed=1
 Flat Bufferfly 
 k = 32 n = 1 c = 32
 each switch - total radix =  63
 # of switches = 32
 # of channels = 992
 # of nodes ( size of network ) = 1024
0 | node5 | Enqueuing flit 1 (packet 1) at time 0.
0 | traffic_manager | Finding output VC for flit 1:
0 | traffic_manager |   Selected output VC 0.
0 | node5 | Injecting flit 1 into subnet 0 at time 0 with priority 0.
1 | network_0/network_0_fchan_ingress5 | Beginning channel traversal for flit 1 with delay 1.
1 | network_0/network_0_fchan_ingress5 | Completed channel traversal for flit 1.
2 | network_0/router_0 | Received flit 1 from channel at input 5.
2 | network_0/router_0 | Adding flit 1 to VC 0 at input 5 (state: idle, empty).
2 | network_0/router_0/buf_5/vc_0 | Changing state from idle to routing.
2 | network_0/router_0 | Beginning routing for VC 0 at input 5 (front: 1).
2 | network_0/router_0 | Completed routing for VC 0 at input 5 (front: 1).
2 | network_0/router_0 |  MIN tmp_out_port: 622 | network_0/router_0 |  NONMIN tmp_out_port: 59
2 | network_0/router_0/buf_5/vc_0 | Changing state from routing to vc_alloc.
2 | network_0/router_0 | Beginning VC allocation for VC 0 at input 5 (front: 1).
2 | network_0/router_0 |   Requesting VC 1 at output 62 (in_pri: 0, out_pri: 0).
2 | network_0/router_0/vc_allocator | Input requests = [ 8 -> [ 125@0 ]  10 -> [ 125@0 ]  26 -> [ 125@0 ]  32 -> [ 125@0 ]  ], output requests = [ 125 -> [ 8@0 10@0 26@0 32@0 ]  ].
2 | network_0/router_0/vc_allocator | Input grants = [ 8 -> 125  ], output grants = [ 125 -> 8  ].
2 | network_0/router_0 | VC allocation failed for VC 0 at input 5.
2 | network_0/router_0 | Completed VC allocation for VC 0 at input 5 (front: 1).
2 | network_0/router_0 |   No output VC allocated.
3 | network_0/router_0 | Beginning VC allocation for VC 0 at input 5 (front: 1).
3 | network_0/router_0 |   Requesting VC 1 at output 62 (in_pri: 0, out_pri: 0).
3 | network_0/router_0/vc_allocator | Input requests = [ 2 -> [ 120@0 ]  9 -> [ 110@0 ]  10 -> [ 125@0 ]  16 -> [ 118@0 ]  26 -> [ 125@0 ]  32 -> [ 125@0 ]  50 -> [ 92@0 ]  58 -> [ 88@0 ]  ], output requests = [ 88 -> [ 58@0 ]  92 -> [ 50@0 ]  110 -> [ 9@0 ]  118 -> [ 16@0 ]  120 -> [ 2@0 ]  125 -> [ 10@0 26@0 32@0 ]  ].
3 | network_0/router_0/vc_allocator | Input grants = [ 2 -> 120  9 -> 110  10 -> 125  16 -> 118  50 -> 92  58 -> 88  ], output grants = [ 88 -> 58  92 -> 50  110 -> 9  118 -> 16  120 -> 2  125 -> 10  ].
3 | network_0/router_0 | Assigning VC 1 at output 62 to VC 0 at input 5.
3 | network_0/router_0 | Completed VC allocation for VC 0 at input 5 (front: 1).
3 | network_0/router_0 |   Acquiring assigned VC 1 at output 62.
3 | network_0/router_0/buf_5/vc_0 | Changing state from vc_alloc to active.
3 | network_0/router_0 | Beginning switch allocation for VC 0 at input 5 (front: 1).
3 | network_0/router_0 |   Requesting output 62.0 (non-spec, pri: 0).
3 | network_0/router_0/sw_allocator | Input requests = [ 1 -> [ 60@0 ]  4 -> [ 55@0 ]  5 -> [ 62@0 ]  8 -> [ 59@0 ]  25 -> [ 46@0 ]  29 -> [ 44@0 ]  ], output requests = [ 44 -> [ 29@0 ]  46 -> [ 25@0 ]  55 -> [ 4@0 ]  59 -> [ 8@0 ]  60 -> [ 1@0 ]  62 -> [ 5@0 ]  ].
3 | network_0/router_0/sw_allocator | Input grants = [ 1 -> 60  4 -> 55  5 -> 62  8 -> 59  25 -> 46  29 -> 44  ], output grants = [ 44 -> 29  46 -> 25  55 -> 4  59 -> 8  60 -> 1  62 -> 5  ].
3 | network_0/router_0 | Assigning output 62.0 to VC 0 at input 5.0.
3 | network_0/router_0 | Completed switch allocation for VC 0 at input 5 (front: 1).
3 | network_0/router_0 |   Scheduling switch connection from input 5.0 to output 62.0.
3 | network_0/router_0 | Beginning crossbar traversal for flit 1 from input 5.0 to output 62.0.
3 | network_0/router_0 | Completed crossbar traversal for flit 1 from input 5.0 to output 62.0.
3 | network_0/router_0 | Buffering flit 1 at output 62.
3 | network_0/router_0 | Sending flit 1 to channel at output 62.
4 | network_0/network_0_fchan_30 | Beginning channel traversal for flit 1 with delay 1.
4 | network_0/network_0_fchan_30 | Completed channel traversal for flit 1.
5 | network_0/router_31 | Received flit 1 from channel at input 32.
5 | network_0/router_31 | Adding flit 1 to VC 1 at input 32 (state: idle, empty).
5 | network_0/router_31/buf_32/vc_1 | Changing state from idle to routing.
5 | network_0/router_31 | Beginning routing for VC 1 at input 32 (front: 1).
5 | network_0/router_31 | Completed routing for VC 1 at input 32 (front: 1).
5 | network_0/router_31/buf_32/vc_1 | Changing state from routing to vc_alloc.
5 | network_0/router_31 | Beginning VC allocation for VC 1 at input 32 (front: 1).
5 | network_0/router_31 |   Requesting VC 0 at output 26 (in_pri: 0, out_pri: 0).
5 | network_0/router_31 |   Requesting VC 1 at output 26 (in_pri: 0, out_pri: 0).
5 | network_0/router_31/vc_allocator | Input requests = [ 6 -> [ 90@0 ]  12 -> [ 120@0 ]  26 -> [ 116@0 ]  30 -> [ 106@0 ]  38 -> [ 72@0 ]  52 -> [ 68@0 ]  59 -> [ 70@0 ]  65 -> [ 52@0 53@0 ]  82 -> [ 109@0 ]  ], output requests = [ 52 -> [ 65@0 ]  53 -> [ 65@0 ]  68 -> [ 52@0 ]  70 -> [ 59@0 ]  72 -> [ 38@0 ]  90 -> [ 6@0 ]  106 -> [ 30@0 ]  109 -> [ 82@0 ]  116 -> [ 26@0 ]  120 -> [ 12@0 ]  ].
5 | network_0/router_31/vc_allocator | Input grants = [ 6 -> 90  12 -> 120  26 -> 116  30 -> 106  38 -> 72  52 -> 68  59 -> 70  65 -> 52  82 -> 109  ], output grants = [ 52 -> 65  68 -> 52  70 -> 59  72 -> 38  90 -> 6  106 -> 30  109 -> 82  116 -> 26  120 -> 12  ].
5 | network_0/router_31 | Assigning VC 0 at output 26 to VC 1 at input 32.
5 | network_0/router_31 | Completed VC allocation for VC 1 at input 32 (front: 1).
5 | network_0/router_31 |   Acquiring assigned VC 0 at output 26.
5 | network_0/router_31/buf_32/vc_1 | Changing state from vc_alloc to active.
5 | network_0/router_31 | Beginning switch allocation for VC 1 at input 32 (front: 1).
5 | network_0/router_31 |   Requesting output 26.0 (non-spec, pri: 0).
5 | network_0/router_31/sw_allocator | Input requests = [ 3 -> [ 45@0 ]  6 -> [ 60@0 ]  13 -> [ 58@0 ]  15 -> [ 53@0 ]  19 -> [ 36@0 ]  26 -> [ 34@0 ]  29 -> [ 35@0 ]  32 -> [ 26@0 ]  41 -> [ 54@0 ]  ], output requests = [ 26 -> [ 32@0 ]  34 -> [ 26@0 ]  35 -> [ 29@0 ]  36 -> [ 19@0 ]  45 -> [ 3@0 ]  53 -> [ 15@0 ]  54 -> [ 41@0 ]  58 -> [ 13@0 ]  60 -> [ 6@0 ]  ].
5 | network_0/router_31/sw_allocator | Input grants = [ 3 -> 45  6 -> 60  13 -> 58  15 -> 53  19 -> 36  26 -> 34  29 -> 35  32 -> 26  41 -> 54  ], output grants = [ 26 -> 32  34 -> 26  35 -> 29  36 -> 19  45 -> 3  53 -> 15  54 -> 41  58 -> 13  60 -> 6  ].
5 | network_0/router_31 | Assigning output 26.0 to VC 1 at input 32.0.
5 | network_0/router_31 | Completed switch allocation for VC 1 at input 32 (front: 1).
5 | network_0/router_31 |   Scheduling switch connection from input 32.0 to output 26.0.
5 | network_0/router_31 | Beginning crossbar traversal for flit 1 from input 32.0 to output 26.0.
5 | network_0/router_31 | Completed crossbar traversal for flit 1 from input 32.0 to output 26.0.
5 | network_0/router_31 | Buffering flit 1 at output 26.
5 | network_0/router_31 | Sending flit 1 to channel at output 26.
6 | network_0/network_0_fchan_egress1018 | Beginning channel traversal for flit 1 with delay 1.
6 | network_0/network_0_fchan_egress1018 | Completed channel traversal for flit 1.
7 | node1018 | Ejecting flit 1 (packet 1) from VC 0.
7 | node1018 | Injecting credit for VC 0 into subnet 0.
7 | node1018 | Retiring flit 1 (packet 1, src = 5, dest = 1018, hops = 2, flat = 7).
7 | node1018 | Retiring packet 1 (plat = 7, nlat = 7, frag = 0, src = 5, dest = 1018).
Class 0:
Packet latency average = 7.76165
	minimum = 6
	maximum = 14
Network latency average = 7.76165
	minimum = 6
	maximum = 14
Slowest packet = 23948
Flit latency average = 7.76165
	minimum = 6
	maximum = 14
Slowest flit = 23948
Fragmentation average = 0
	minimum = 0
	maximum = 0
Injected packet rate average = 0.0751504
	minimum = 0.04 (at node 554)
	maximum = 0.11 (at node 112)
Accepted packet rate average = 0.074541
	minimum = 0.039 (at node 469)
	maximum = 0.109 (at node 911)
Injected flit rate average = 0.0751504
	minimum = 0.04 (at node 554)
	maximum = 0.11 (at node 112)
Accepted flit rate average= 0.074541
	minimum = 0.039 (at node 469)
	maximum = 0.109 (at node 911)
Injected packet length average = 1
Accepted packet length average = 1
Total in-flight flits = 624 (0 measured)
latency change    = 1
throughput change = 1
Class 0:
Packet latency average = 7.75721
	minimum = 6
	maximum = 19
Network latency average = 7.75721
	minimum = 6
	maximum = 19
Slowest packet = 121428
Flit latency average = 7.75721
	minimum = 6
	maximum = 19
Slowest flit = 121428
Fragmentation average = 0
	minimum = 0
	maximum = 0
Injected packet rate average = 0.0750591
	minimum = 0.0515 (at node 554)
	maximum = 0.099 (at node 965)
Accepted packet rate average = 0.0747734
	minimum = 0.0515 (at node 469)
	maximum = 0.0985 (at node 58)
Injected flit rate average = 0.0750591
	minimum = 0.0515 (at node 554)
	maximum = 0.099 (at node 965)
Accepted flit rate average= 0.0747734
	minimum = 0.0515 (at node 469)
	maximum = 0.0985 (at node 58)
Injected packet length average = 1
Accepted packet length average = 1
Total in-flight flits = 585 (0 measured)
latency change    = 0.000572895
throughput change = 0.00310835
Class 0:
Packet latency average = 7.76096
	minimum = 6
	maximum = 16
Network latency average = 7.76096
	minimum = 6
	maximum = 16
Slowest packet = 155534
Flit latency average = 7.76096
	minimum = 6
	maximum = 16
Slowest flit = 155534
Fragmentation average = 0
	minimum = 0
	maximum = 0
Injected packet rate average = 0.0750752
	minimum = 0.052 (at node 295)
	maximum = 0.112 (at node 644)
Accepted packet rate average = 0.0750352
	minimum = 0.051 (at node 339)
	maximum = 0.111 (at node 379)
Injected flit rate average = 0.0750752
	minimum = 0.052 (at node 295)
	maximum = 0.112 (at node 644)
Accepted flit rate average= 0.0750352
	minimum = 0.051 (at node 339)
	maximum = 0.111 (at node 379)
Injected packet length average = 1
Accepted packet length average = 1
Total in-flight flits = 626 (0 measured)
latency change    = 0.000483075
throughput change = 0.00348795
Warmed up ...Time used is 3000 cycles
Class 0:
Packet latency average = 7.76105
	minimum = 6
	maximum = 16
Network latency average = 7.76105
	minimum = 6
	maximum = 16
Slowest packet = 247282
Flit latency average = 7.7622
	minimum = 6
	maximum = 16
Slowest flit = 247282
Fragmentation average = 0
	minimum = 0
	maximum = 0
Injected packet rate average = 0.0751191
	minimum = 0.051 (at node 293)
	maximum = 0.102 (at node 905)
Accepted packet rate average = 0.0751758
	minimum = 0.05 (at node 730)
	maximum = 0.1 (at node 118)
Injected flit rate average = 0.0751191
	minimum = 0.051 (at node 293)
	maximum = 0.102 (at node 905)
Accepted flit rate average= 0.0751758
	minimum = 0.05 (at node 730)
	maximum = 0.1 (at node 118)
Injected packet length average = 1
Accepted packet length average = 1
Total in-flight flits = 568 (568 measured)
latency change    = 1.14447e-05
throughput change = 0.00187062
Class 0:
Packet latency average = 7.76183
	minimum = 6
	maximum = 16
Network latency average = 7.76183
	minimum = 6
	maximum = 16
Slowest packet = 247282
Flit latency average = 7.7624
	minimum = 6
	maximum = 16
Slowest flit = 247282
Fragmentation average = 0
	minimum = 0
	maximum = 0
Injected packet rate average = 0.0750718
	minimum = 0.0585 (at node 413)
	maximum = 0.0965 (at node 496)
Accepted packet rate average = 0.075106
	minimum = 0.059 (at node 610)
	maximum = 0.096 (at node 527)
Injected flit rate average = 0.0750718
	minimum = 0.0585 (at node 413)
	maximum = 0.0965 (at node 496)
Accepted flit rate average= 0.075106
	minimum = 0.059 (at node 610)
	maximum = 0.096 (at node 527)
Injected packet length average = 1
Accepted packet length average = 1
Total in-flight flits = 556 (556 measured)
latency change    = 0.000100429
throughput change = 0.000929676
Class 0:
Packet latency average = 7.76292
	minimum = 6
	maximum = 16
Network latency average = 7.76292
	minimum = 6
	maximum = 16
Slowest packet = 247282
Flit latency average = 7.7633
	minimum = 6
	maximum = 16
Slowest flit = 247282
Fragmentation average = 0
	minimum = 0
	maximum = 0
Injected packet rate average = 0.0753086
	minimum = 0.0603333 (at node 784)
	maximum = 0.0916667 (at node 496)
Accepted packet rate average = 0.0753223
	minimum = 0.061 (at node 239)
	maximum = 0.0923333 (at node 238)
Injected flit rate average = 0.0753086
	minimum = 0.0603333 (at node 784)
	maximum = 0.0916667 (at node 496)
Accepted flit rate average= 0.0753223
	minimum = 0.061 (at node 239)
	maximum = 0.0923333 (at node 238)
Injected packet length average = 1
Accepted packet length average = 1
Total in-flight flits = 584 (584 measured)
latency change    = 0.000141126
throughput change = 0.00287177
Draining all recorded packets ...
Draining remaining packets ...
Time taken is 6022 cycles
====== Overall Traffic Statistics ======
====== Traffic class 0 ======
Packet latency average = 7.76311 (1 samples)
	minimum = 6 (1 samples)
	maximum = 16 (1 samples)
Network latency average = 7.76311 (1 samples)
	minimum = 6 (1 samples)
	maximum = 16 (1 samples)
Flit latency average = 7.76353 (1 samples)
	minimum = 6 (1 samples)
	maximum = 16 (1 samples)
Fragmentation average = 0 (1 samples)
	minimum = 0 (1 samples)
	maximum = 0 (1 samples)
Injected packet rate average = 0.0753086 (1 samples)
	minimum = 0.0603333 (1 samples)
	maximum = 0.0916667 (1 samples)
Accepted packet rate average = 0.0753223 (1 samples)
	minimum = 0.061 (1 samples)
	maximum = 0.0923333 (1 samples)
Injected flit rate average = 0.0753086 (1 samples)
	minimum = 0.0603333 (1 samples)
	maximum = 0.0916667 (1 samples)
Accepted flit rate average = 0.0753223 (1 samples)
	minimum = 0.061 (1 samples)
	maximum = 0.0923333 (1 samples)
Injected packet size average = 1 (1 samples)
Accepted packet size average = 1 (1 samples)
Hops average = 2.72403 (1 samples)
Total run time 2335.89
