BEGIN Configuration File: ../../booksim2/src/examples/flatflyconfig
// $Id$

// Copyright (c) 2007-2015, Trustees of The Leland Stanford Junior University
// All rights reserved.
//
// Redistribution and use in source and binary forms, with or without
// modification, are permitted provided that the following conditions are met:
//
// Redistributions of source code must retain the above copyright notice, this
// list of conditions and the following disclaimer.
// Redistributions in binary form must reproduce the above copyright notice,
// this list of conditions and the following disclaimer in the documentation
// and/or other materials provided with the distribution.
//
// THIS SOFTWARE IS PROVIDED BY THE COPYRIGHT HOLDERS AND CONTRIBUTORS "AS IS"
// AND ANY EXPRESS OR IMPLIED WARRANTIES, INCLUDING, BUT NOT LIMITED TO, THE
// IMPLIED WARRANTIES OF MERCHANTABILITY AND FITNESS FOR A PARTICULAR PURPOSE
// ARE DISCLAIMED. IN NO EVENT SHALL THE COPYRIGHT OWNER OR CONTRIBUTORS BE
// LIABLE FOR ANY DIRECT, INDIRECT, INCIDENTAL, SPECIAL, EXEMPLARY, OR
// CONSEQUENTIAL DAMAGES (INCLUDING, BUT NOT LIMITED TO, PROCUREMENT OF
// SUBSTITUTE GOODS OR SERVICES; LOSS OF USE, DATA, OR PROFITS; OR BUSINESS
// INTERRUPTION) HOWEVER CAUSED AND ON ANY THEORY OF LIABILITY, WHETHER IN
// CONTRACT, STRICT LIABILITY, OR TORT (INCLUDING NEGLIGENCE OR OTHERWISE)
// ARISING IN ANY WAY OUT OF THE USE OF THIS SOFTWARE, EVEN IF ADVISED OF THE
// POSSIBILITY OF SUCH DAMAGE.

//A flattened butterfly configurate file with many tweaks from the
//default settings. 


// Flow control
// Total number of VCs must match the above assignments
num_vcs     = 2;
vc_buf_size = 16;

wait_for_tail_credit = 0;

//
// Router architectureq
//
vc_allocator = islip; 
sw_allocator = islip;
alloc_iters  = 3;

credit_delay   = 0;
routing_delay  = 1;
vc_alloc_delay = 1;
sw_alloc_delay = 1;
st_final_delay = 1;

input_speedup     = 1;
output_speedup    = 1;
internal_speedup  = 1.6;

//
// Traffic
//

warmup_periods = 3;

sample_period  = 1000;  

sim_count          = 1;

traffic       = bitrev;


// Flatfly 
//
// #node = k^(n+1)
//
// x, y, specifies the arrangement of routers in x and y dim
// xr, yr specifiies the arayment of clients in a router
//
topology = flatfly;
subnets = 1;

c  = 16;
k  = 16;
n  = 1;

x  = 16;
y  = 1;
xr = 16;
yr = 1;

use_noc_latency = 0;

//
// Routing
//

routing_function = ugal;

//1: batch mode, 0: injection mode
use_read_write = 0;

//for injection mode
packet_size = 1;
injection_rate = 0.1;

//for batch mode
read_request_size=1;
write_request_size=1;
read_reply_size=1;
write_reply_size=1;

read_request_begin_vc  = 0;
read_request_end_vc    = 3;
write_reply_begin_vc   = 4;
write_reply_end_vc     = 7;
read_reply_begin_vc    = 4;
read_reply_end_vc      = 7;
write_request_begin_vc = 0;
write_request_end_vc   = 3;

//latency: drains all packet, throughput:no drain?
sim_type = latency;

watch_out = -;;END Configuration File: ../../booksim2/src/examples/flatflyconfig
OVERRIDE Parameter: routing_function=ugal
OVERRIDE Parameter: traffic=bitcomp
OVERRIDE Parameter: injection_rate={0.7}
OVERRIDE Parameter: c=32
OVERRIDE Parameter: k=32
OVERRIDE Parameter: x=32
OVERRIDE Parameter: xr=32
OVERRIDE Parameter: sim_type=latency
OVERRIDE Parameter: seed=1
 Flat Bufferfly 
 k = 32 n = 1 c = 32
 each switch - total radix =  63
 # of switches = 32
 # of channels = 992
 # of nodes ( size of network ) = 1024
0 | node1 | Enqueuing flit 1 (packet 1) at time 0.
0 | traffic_manager | Finding output VC for flit 1:
0 | traffic_manager |   Selected output VC 0.
0 | node1 | Injecting flit 1 into subnet 0 at time 0 with priority 0.
1 | network_0/network_0_fchan_ingress1 | Beginning channel traversal for flit 1 with delay 1.
1 | network_0/network_0_fchan_ingress1 | Completed channel traversal for flit 1.
2 | network_0/router_0 | Received flit 1 from channel at input 1.
2 | network_0/router_0 | Adding flit 1 to VC 0 at input 1 (state: idle, empty).
2 | network_0/router_0/buf_1/vc_0 | Changing state from idle to routing.
2 | network_0/router_0 | Beginning routing for VC 0 at input 1 (front: 1).
2 | network_0/router_0 | Completed routing for VC 0 at input 1 (front: 1).
2 | network_0/router_0 |  MIN tmp_out_port: 622 | network_0/router_0 |  NONMIN tmp_out_port: 42
2 | network_0/router_0/buf_1/vc_0 | Changing state from routing to vc_alloc.
2 | network_0/router_0 | Beginning VC allocation for VC 0 at input 1 (front: 1).
2 | network_0/router_0 |   Requesting VC 1 at output 62 (in_pri: 0, out_pri: 0).
2 | network_0/router_0/vc_allocator | Input requests = [ 0 -> [ 125@0 ]  2 -> [ 125@0 ]  4 -> [ 125@0 ]  6 -> [ 125@0 ]  8 -> [ 125@0 ]  10 -> [ 125@0 ]  12 -> [ 125@0 ]  14 -> [ 125@0 ]  16 -> [ 125@0 ]  18 -> [ 125@0 ]  20 -> [ 125@0 ]  22 -> [ 125@0 ]  24 -> [ 125@0 ]  26 -> [ 125@0 ]  30 -> [ 125@0 ]  32 -> [ 125@0 ]  34 -> [ 125@0 ]  38 -> [ 125@0 ]  40 -> [ 125@0 ]  42 -> [ 125@0 ]  52 -> [ 125@0 ]  56 -> [ 125@0 ]  58 -> [ 125@0 ]  ], output requests = [ 125 -> [ 0@0 2@0 4@0 6@0 8@0 10@0 12@0 14@0 16@0 18@0 20@0 22@0 24@0 26@0 30@0 32@0 34@0 38@0 40@0 42@0 52@0 56@0 58@0 ]  ].
2 | network_0/router_0/vc_allocator | Input grants = [ 0 -> 125  ], output grants = [ 125 -> 0  ].
2 | network_0/router_0 | VC allocation failed for VC 0 at input 1.
2 | network_0/router_0 | Completed VC allocation for VC 0 at input 1 (front: 1).
2 | network_0/router_0 |   No output VC allocated.
3 | network_0/router_0 | Beginning VC allocation for VC 0 at input 1 (front: 1).
3 | network_0/router_0 |   Requesting VC 1 at output 62 (in_pri: 0, out_pri: 0).
3 | network_0/router_0/vc_allocator | Input requests = [ 1 -> [ 104@0 ]  2 -> [ 125@0 ]  3 -> [ 104@0 ]  4 -> [ 125@0 ]  5 -> [ 72@0 ]  6 -> [ 125@0 ]  7 -> [ 112@0 ]  8 -> [ 125@0 ]  9 -> [ 120@0 ]  10 -> [ 125@0 ]  11 -> [ 76@0 ]  12 -> [ 125@0 ]  13 -> [ 92@0 ]  14 -> [ 125@0 ]  15 -> [ 94@0 ]  16 -> [ 125@0 ]  17 -> [ 86@0 ]  18 -> [ 125@0 ]  19 -> [ 100@0 ]  20 -> [ 125@0 ]  21 -> [ 112@0 ]  22 -> [ 125@0 ]  23 -> [ 92@0 ]  24 -> [ 125@0 ]  25 -> [ 116@0 ]  26 -> [ 125@0 ]  27 -> [ 118@0 ]  28 -> [ 86@0 ]  30 -> [ 125@0 ]  32 -> [ 125@0 ]  34 -> [ 125@0 ]  36 -> [ 86@0 ]  38 -> [ 125@0 ]  40 -> [ 125@0 ]  42 -> [ 125@0 ]  43 -> [ 100@0 ]  44 -> [ 94@0 ]  48 -> [ 102@0 ]  50 -> [ 112@0 ]  52 -> [ 125@0 ]  53 -> [ 98@0 ]  54 -> [ 96@0 ]  56 -> [ 125@0 ]  58 -> [ 125@0 ]  59 -> [ 122@0 ]  60 -> [ 78@0 ]  ], output requests = [ 72 -> [ 5@0 ]  76 -> [ 11@0 ]  78 -> [ 60@0 ]  86 -> [ 17@0 28@0 36@0 ]  92 -> [ 13@0 23@0 ]  94 -> [ 15@0 44@0 ]  96 -> [ 54@0 ]  98 -> [ 53@0 ]  100 -> [ 19@0 43@0 ]  102 -> [ 48@0 ]  104 -> [ 1@0 3@0 ]  112 -> [ 7@0 21@0 50@0 ]  116 -> [ 25@0 ]  118 -> [ 27@0 ]  120 -> [ 9@0 ]  122 -> [ 59@0 ]  125 -> [ 2@0 4@0 6@0 8@0 10@0 12@0 14@0 16@0 18@0 20@0 22@0 24@0 26@0 30@0 32@0 34@0 38@0 40@0 42@0 52@0 56@0 58@0 ]  ].
3 | network_0/router_0/vc_allocator | Input grants = [ 1 -> 104  2 -> 125  5 -> 72  7 -> 112  9 -> 120  11 -> 76  13 -> 92  15 -> 94  17 -> 86  19 -> 100  25 -> 116  27 -> 118  48 -> 102  53 -> 98  54 -> 96  59 -> 122  60 -> 78  ], output grants = [ 72 -> 5  76 -> 11  78 -> 60  86 -> 17  92 -> 13  94 -> 15  96 -> 54  98 -> 53  100 -> 19  102 -> 48  104 -> 1  112 -> 7  116 -> 25  118 -> 27  120 -> 9  122 -> 59  125 -> 2  ].
3 | network_0/router_0 | Assigning VC 1 at output 62 to VC 0 at input 1.
3 | network_0/router_0 | Completed VC allocation for VC 0 at input 1 (front: 1).
3 | network_0/router_0 |   Acquiring assigned VC 1 at output 62.
3 | network_0/router_0/buf_1/vc_0 | Changing state from vc_alloc to active.
3 | network_0/router_0 | Beginning switch allocation for VC 0 at input 1 (front: 1).
3 | network_0/router_0 |   Requesting output 62.0 (non-spec, pri: 0).
3 | network_0/router_0/sw_allocator | Input requests = [ 0 -> [ 52@0 ]  1 -> [ 62@0 ]  2 -> [ 36@0 ]  3 -> [ 56@0 ]  4 -> [ 60@0 ]  5 -> [ 38@0 ]  6 -> [ 46@0 ]  7 -> [ 47@0 ]  8 -> [ 43@0 ]  9 -> [ 50@0 ]  12 -> [ 58@0 ]  13 -> [ 59@0 ]  24 -> [ 51@0 ]  26 -> [ 49@0 ]  27 -> [ 48@0 ]  29 -> [ 61@0 ]  30 -> [ 39@0 ]  ], output requests = [ 36 -> [ 2@0 ]  38 -> [ 5@0 ]  39 -> [ 30@0 ]  43 -> [ 8@0 ]  46 -> [ 6@0 ]  47 -> [ 7@0 ]  48 -> [ 27@0 ]  49 -> [ 26@0 ]  50 -> [ 9@0 ]  51 -> [ 24@0 ]  52 -> [ 0@0 ]  56 -> [ 3@0 ]  58 -> [ 12@0 ]  59 -> [ 13@0 ]  60 -> [ 4@0 ]  61 -> [ 29@0 ]  62 -> [ 1@0 ]  ].
3 | network_0/router_0/sw_allocator | Input grants = [ 0 -> 52  1 -> 62  2 -> 36  3 -> 56  4 -> 60  5 -> 38  6 -> 46  7 -> 47  8 -> 43  9 -> 50  12 -> 58  13 -> 59  24 -> 51  26 -> 49  27 -> 48  29 -> 61  30 -> 39  ], output grants = [ 36 -> 2  38 -> 5  39 -> 30  43 -> 8  46 -> 6  47 -> 7  48 -> 27  49 -> 26  50 -> 9  51 -> 24  52 -> 0  56 -> 3  58 -> 12  59 -> 13  60 -> 4  61 -> 29  62 -> 1  ].
3 | network_0/router_0 | Assigning output 62.0 to VC 0 at input 1.0.
3 | network_0/router_0 | Completed switch allocation for VC 0 at input 1 (front: 1).
3 | network_0/router_0 |   Scheduling switch connection from input 1.0 to output 62.0.
3 | network_0/router_0 | Beginning crossbar traversal for flit 1 from input 1.0 to output 62.0.
3 | network_0/router_0 | Completed crossbar traversal for flit 1 from input 1.0 to output 62.0.
3 | network_0/router_0 | Buffering flit 1 at output 62.
3 | network_0/router_0 | Sending flit 1 to channel at output 62.
4 | network_0/network_0_fchan_30 | Beginning channel traversal for flit 1 with delay 1.
4 | network_0/network_0_fchan_30 | Completed channel traversal for flit 1.
5 | network_0/router_31 | Received flit 1 from channel at input 32.
5 | network_0/router_31 | Adding flit 1 to VC 1 at input 32 (state: idle, empty).
5 | network_0/router_31/buf_32/vc_1 | Changing state from idle to routing.
5 | network_0/router_31 | Beginning routing for VC 1 at input 32 (front: 1).
5 | network_0/router_31 | Completed routing for VC 1 at input 32 (front: 1).
5 | network_0/router_31/buf_32/vc_1 | Changing state from routing to vc_alloc.
5 | network_0/router_31 | Beginning VC allocation for VC 1 at input 32 (front: 1).
5 | network_0/router_31 |   Requesting VC 0 at output 30 (in_pri: 0, out_pri: 0).
5 | network_0/router_31 |   Requesting VC 1 at output 30 (in_pri: 0, out_pri: 0).
5 | network_0/router_31/vc_allocator | Input requests = [ 0 -> [ 96@0 ]  5 -> [ 86@0 ]  7 -> [ 65@0 ]  9 -> [ 90@0 ]  10 -> [ 94@0 ]  12 -> [ 100@0 ]  14 -> [ 65@0 ]  17 -> [ 92@0 ]  18 -> [ 65@0 ]  19 -> [ 92@0 ]  22 -> [ 65@0 ]  24 -> [ 65@0 ]  25 -> [ 88@0 ]  26 -> [ 65@0 ]  27 -> [ 65@0 ]  28 -> [ 114@0 ]  30 -> [ 65@0 ]  31 -> [ 74@0 ]  32 -> [ 65@0 ]  35 -> [ 65@0 ]  36 -> [ 65@0 ]  38 -> [ 65@0 ]  39 -> [ 112@0 ]  40 -> [ 65@0 ]  42 -> [ 65@0 ]  44 -> [ 65@0 ]  45 -> [ 80@0 ]  46 -> [ 65@0 ]  47 -> [ 98@0 ]  48 -> [ 65@0 ]  49 -> [ 88@0 ]  50 -> [ 65@0 ]  51 -> [ 98@0 ]  52 -> [ 65@0 ]  53 -> [ 65@0 ]  55 -> [ 84@0 ]  56 -> [ 65@0 ]  57 -> [ 68@0 ]  58 -> [ 65@0 ]  59 -> [ 76@0 ]  60 -> [ 65@0 ]  62 -> [ 65@0 ]  65 -> [ 60@0 61@0 ]  70 -> [ 121@0 ]  72 -> [ 119@0 ]  78 -> [ 113@0 ]  80 -> [ 111@0 ]  84 -> [ 107@0 ]  86 -> [ 105@0 ]  94 -> [ 97@0 ]  98 -> [ 93@0 ]  102 -> [ 89@0 ]  112 -> [ 79@0 ]  120 -> [ 71@0 ]  ], output requests = [ 60 -> [ 65@0 ]  61 -> [ 65@0 ]  65 -> [ 7@0 14@0 18@0 22@0 24@0 26@0 27@0 30@0 32@0 35@0 36@0 38@0 40@0 42@0 44@0 46@0 48@0 50@0 52@0 53@0 56@0 58@0 60@0 62@0 ]  68 -> [ 57@0 ]  71 -> [ 120@0 ]  74 -> [ 31@0 ]  76 -> [ 59@0 ]  79 -> [ 112@0 ]  80 -> [ 45@0 ]  84 -> [ 55@0 ]  86 -> [ 5@0 ]  88 -> [ 25@0 49@0 ]  89 -> [ 102@0 ]  90 -> [ 9@0 ]  92 -> [ 17@0 19@0 ]  93 -> [ 98@0 ]  94 -> [ 10@0 ]  96 -> [ 0@0 ]  97 -> [ 94@0 ]  98 -> [ 47@0 51@0 ]  100 -> [ 12@0 ]  105 -> [ 86@0 ]  107 -> [ 84@0 ]  111 -> [ 80@0 ]  112 -> [ 39@0 ]  113 -> [ 78@0 ]  114 -> [ 28@0 ]  119 -> [ 72@0 ]  121 -> [ 70@0 ]  ].
5 | network_0/router_31/vc_allocator | Input grants = [ 0 -> 96  5 -> 86  9 -> 90  10 -> 94  12 -> 100  14 -> 65  17 -> 92  25 -> 88  28 -> 114  31 -> 74  39 -> 112  45 -> 80  47 -> 98  55 -> 84  57 -> 68  59 -> 76  65 -> 60  70 -> 121  72 -> 119  78 -> 113  80 -> 111  84 -> 107  86 -> 105  94 -> 97  98 -> 93  102 -> 89  112 -> 79  120 -> 71  ], output grants = [ 60 -> 65  65 -> 14  68 -> 57  71 -> 120  74 -> 31  76 -> 59  79 -> 112  80 -> 45  84 -> 55  86 -> 5  88 -> 25  89 -> 102  90 -> 9  92 -> 17  93 -> 98  94 -> 10  96 -> 0  97 -> 94  98 -> 47  100 -> 12  105 -> 86  107 -> 84  111 -> 80  112 -> 39  113 -> 78  114 -> 28  119 -> 72  121 -> 70  ].
5 | network_0/router_31 | Assigning VC 0 at output 30 to VC 1 at input 32.
5 | network_0/router_31 | Completed VC allocation for VC 1 at input 32 (front: 1).
5 | network_0/router_31 |   Acquiring assigned VC 0 at output 30.
5 | network_0/router_31/buf_32/vc_1 | Changing state from vc_alloc to active.
5 | network_0/router_31 | Beginning switch allocation for VC 1 at input 32 (front: 1).
5 | network_0/router_31 |   Requesting output 30.0 (non-spec, pri: 0).
5 | network_0/router_31/sw_allocator | Input requests = [ 0 -> [ 48@0 ]  2 -> [ 43@0 ]  4 -> [ 45@0 ]  5 -> [ 47@0 ]  6 -> [ 50@0 ]  7 -> [ 32@0 ]  8 -> [ 46@0 ]  12 -> [ 44@0 ]  14 -> [ 57@0 ]  15 -> [ 37@0 ]  19 -> [ 56@0 ]  22 -> [ 40@0 ]  23 -> [ 49@0 ]  27 -> [ 42@0 ]  28 -> [ 34@0 ]  29 -> [ 38@0 ]  32 -> [ 30@0 ]  35 -> [ 60@0 ]  36 -> [ 59@0 ]  39 -> [ 56@0 ]  40 -> [ 55@0 ]  42 -> [ 53@0 ]  43 -> [ 52@0 ]  47 -> [ 48@0 ]  49 -> [ 46@0 ]  51 -> [ 44@0 ]  56 -> [ 39@0 ]  60 -> [ 35@0 ]  ], output requests = [ 30 -> [ 32@0 ]  32 -> [ 7@0 ]  34 -> [ 28@0 ]  35 -> [ 60@0 ]  37 -> [ 15@0 ]  38 -> [ 29@0 ]  39 -> [ 56@0 ]  40 -> [ 22@0 ]  42 -> [ 27@0 ]  43 -> [ 2@0 ]  44 -> [ 12@0 51@0 ]  45 -> [ 4@0 ]  46 -> [ 8@0 49@0 ]  47 -> [ 5@0 ]  48 -> [ 0@0 47@0 ]  49 -> [ 23@0 ]  50 -> [ 6@0 ]  52 -> [ 43@0 ]  53 -> [ 42@0 ]  55 -> [ 40@0 ]  56 -> [ 19@0 39@0 ]  57 -> [ 14@0 ]  59 -> [ 36@0 ]  60 -> [ 35@0 ]  ].
5 | network_0/router_31/sw_allocator | Input grants = [ 2 -> 43  4 -> 45  5 -> 47  6 -> 50  7 -> 32  8 -> 46  12 -> 44  14 -> 57  15 -> 37  19 -> 56  22 -> 40  23 -> 49  27 -> 42  28 -> 34  29 -> 38  32 -> 30  35 -> 60  36 -> 59  40 -> 55  42 -> 53  43 -> 52  47 -> 48  56 -> 39  60 -> 35  ], output grants = [ 30 -> 32  32 -> 7  34 -> 28  35 -> 60  37 -> 15  38 -> 29  39 -> 56  40 -> 22  42 -> 27  43 -> 2  44 -> 12  45 -> 4  46 -> 8  47 -> 5  48 -> 47  49 -> 23  50 -> 6  52 -> 43  53 -> 42  55 -> 40  56 -> 19  57 -> 14  59 -> 36  60 -> 35  ].
5 | network_0/router_31 | Assigning output 30.0 to VC 1 at input 32.0.
5 | network_0/router_31 | Completed switch allocation for VC 1 at input 32 (front: 1).
5 | network_0/router_31 |   Scheduling switch connection from input 32.0 to output 30.0.
5 | network_0/router_31 | Beginning crossbar traversal for flit 1 from input 32.0 to output 30.0.
5 | network_0/router_31 | Completed crossbar traversal for flit 1 from input 32.0 to output 30.0.
5 | network_0/router_31 | Buffering flit 1 at output 30.
5 | network_0/router_31 | Sending flit 1 to channel at output 30.
6 | network_0/network_0_fchan_egress1022 | Beginning channel traversal for flit 1 with delay 1.
6 | network_0/network_0_fchan_egress1022 | Completed channel traversal for flit 1.
7 | node1022 | Ejecting flit 1 (packet 1) from VC 0.
7 | node1022 | Injecting credit for VC 0 into subnet 0.
7 | node1022 | Retiring flit 1 (packet 1, src = 1, dest = 1022, hops = 2, flat = 7).
7 | node1022 | Retiring packet 1 (plat = 7, nlat = 7, frag = 0, src = 1, dest = 1022).
Class 0:
Packet latency average = 291.775
	minimum = 6
	maximum = 856
Network latency average = 103.669
	minimum = 6
	maximum = 687
Slowest packet = 43747
Flit latency average = 103.669
	minimum = 6
	maximum = 687
Slowest flit = 63743
Fragmentation average = 0
	minimum = 0
	maximum = 0
Injected packet rate average = 0.315426
	minimum = 0.187 (at node 91)
	maximum = 0.542 (at node 726)
Accepted packet rate average = 0.281626
	minimum = 0.153 (at node 514)
	maximum = 0.505 (at node 278)
Injected flit rate average = 0.315426
	minimum = 0.187 (at node 91)
	maximum = 0.542 (at node 726)
Accepted flit rate average= 0.281626
	minimum = 0.153 (at node 514)
	maximum = 0.505 (at node 278)
Injected packet length average = 1
Accepted packet length average = 1
Total in-flight flits = 35345 (0 measured)
latency change    = 1
throughput change = 1
Class 0:
Packet latency average = 589.773
	minimum = 6
	maximum = 1546
Network latency average = 111.78
	minimum = 6
	maximum = 729
Slowest packet = 43747
Flit latency average = 111.78
	minimum = 6
	maximum = 729
Slowest flit = 393815
Fragmentation average = 0
	minimum = 0
	maximum = 0
Injected packet rate average = 0.298684
	minimum = 0.171 (at node 462)
	maximum = 0.449 (at node 466)
Accepted packet rate average = 0.281733
	minimum = 0.155 (at node 561)
	maximum = 0.433 (at node 557)
Injected flit rate average = 0.298684
	minimum = 0.171 (at node 462)
	maximum = 0.449 (at node 466)
Accepted flit rate average= 0.281733
	minimum = 0.155 (at node 561)
	maximum = 0.433 (at node 557)
Injected packet length average = 1
Accepted packet length average = 1
Total in-flight flits = 35437 (0 measured)
latency change    = 0.505276
throughput change = 0.000379557
Average latency for class 0 exceeded 500 cycles. Aborting simulation.
Too many sample periods needed to converge
Simulation unstable, ending ...
Total run time 4725.12
