BEGIN Configuration File: ../../booksim2/src/examples/flatflyconfig
// $Id$

// Copyright (c) 2007-2015, Trustees of The Leland Stanford Junior University
// All rights reserved.
//
// Redistribution and use in source and binary forms, with or without
// modification, are permitted provided that the following conditions are met:
//
// Redistributions of source code must retain the above copyright notice, this
// list of conditions and the following disclaimer.
// Redistributions in binary form must reproduce the above copyright notice,
// this list of conditions and the following disclaimer in the documentation
// and/or other materials provided with the distribution.
//
// THIS SOFTWARE IS PROVIDED BY THE COPYRIGHT HOLDERS AND CONTRIBUTORS "AS IS"
// AND ANY EXPRESS OR IMPLIED WARRANTIES, INCLUDING, BUT NOT LIMITED TO, THE
// IMPLIED WARRANTIES OF MERCHANTABILITY AND FITNESS FOR A PARTICULAR PURPOSE
// ARE DISCLAIMED. IN NO EVENT SHALL THE COPYRIGHT OWNER OR CONTRIBUTORS BE
// LIABLE FOR ANY DIRECT, INDIRECT, INCIDENTAL, SPECIAL, EXEMPLARY, OR
// CONSEQUENTIAL DAMAGES (INCLUDING, BUT NOT LIMITED TO, PROCUREMENT OF
// SUBSTITUTE GOODS OR SERVICES; LOSS OF USE, DATA, OR PROFITS; OR BUSINESS
// INTERRUPTION) HOWEVER CAUSED AND ON ANY THEORY OF LIABILITY, WHETHER IN
// CONTRACT, STRICT LIABILITY, OR TORT (INCLUDING NEGLIGENCE OR OTHERWISE)
// ARISING IN ANY WAY OUT OF THE USE OF THIS SOFTWARE, EVEN IF ADVISED OF THE
// POSSIBILITY OF SUCH DAMAGE.

//A flattened butterfly configurate file with many tweaks from the
//default settings. 


// Flow control
// Total number of VCs must match the above assignments
num_vcs     = 2;
vc_buf_size = 16;

wait_for_tail_credit = 0;

//
// Router architectureq
//
vc_allocator = islip; 
sw_allocator = islip;
alloc_iters  = 3;

credit_delay   = 0;
routing_delay  = 1;
vc_alloc_delay = 1;
sw_alloc_delay = 1;
st_final_delay = 1;

input_speedup     = 1;
output_speedup    = 1;
internal_speedup  = 1.6;

//
// Traffic
//

warmup_periods = 3;

sample_period  = 1000;  

sim_count          = 1;

traffic       = bitrev;


// Flatfly 
//
// #node = k^(n+1)
//
// x, y, specifies the arrangement of routers in x and y dim
// xr, yr specifiies the arayment of clients in a router
//
topology = flatfly;
subnets = 1;

c  = 16;
k  = 16;
n  = 1;

x  = 16;
y  = 1;
xr = 16;
yr = 1;

use_noc_latency = 0;

//
// Routing
//

routing_function = ugal;

//1: batch mode, 0: injection mode
use_read_write = 0;

//for injection mode
packet_size = 1;
injection_rate = 0.1;

//for batch mode
read_request_size=1;
write_request_size=1;
read_reply_size=1;
write_reply_size=1;

read_request_begin_vc  = 0;
read_request_end_vc    = 3;
write_reply_begin_vc   = 4;
write_reply_end_vc     = 7;
read_reply_begin_vc    = 4;
read_reply_end_vc      = 7;
write_request_begin_vc = 0;
write_request_end_vc   = 3;

//latency: drains all packet, throughput:no drain?
sim_type = latency;

watch_out = -;;END Configuration File: ../../booksim2/src/examples/flatflyconfig
OVERRIDE Parameter: routing_function=ugal
OVERRIDE Parameter: traffic=bitcomp
OVERRIDE Parameter: injection_rate={0.4}
OVERRIDE Parameter: c=32
OVERRIDE Parameter: k=32
OVERRIDE Parameter: x=32
OVERRIDE Parameter: xr=32
OVERRIDE Parameter: sim_type=latency
OVERRIDE Parameter: seed=1
 Flat Bufferfly 
 k = 32 n = 1 c = 32
 each switch - total radix =  63
 # of switches = 32
 # of channels = 992
 # of nodes ( size of network ) = 1024
0 | node1 | Enqueuing flit 1 (packet 1) at time 0.
0 | traffic_manager | Finding output VC for flit 1:
0 | traffic_manager |   Selected output VC 0.
0 | node1 | Injecting flit 1 into subnet 0 at time 0 with priority 0.
1 | network_0/network_0_fchan_ingress1 | Beginning channel traversal for flit 1 with delay 1.
1 | network_0/network_0_fchan_ingress1 | Completed channel traversal for flit 1.
2 | network_0/router_0 | Received flit 1 from channel at input 1.
2 | network_0/router_0 | Adding flit 1 to VC 0 at input 1 (state: idle, empty).
2 | network_0/router_0/buf_1/vc_0 | Changing state from idle to routing.
2 | network_0/router_0 | Beginning routing for VC 0 at input 1 (front: 1).
2 | network_0/router_0 | Completed routing for VC 0 at input 1 (front: 1).
2 | network_0/router_0 |  MIN tmp_out_port: 622 | network_0/router_0 |  NONMIN tmp_out_port: 34
2 | network_0/router_0/buf_1/vc_0 | Changing state from routing to vc_alloc.
2 | network_0/router_0 | Beginning VC allocation for VC 0 at input 1 (front: 1).
2 | network_0/router_0 |   Requesting VC 1 at output 62 (in_pri: 0, out_pri: 0).
2 | network_0/router_0/vc_allocator | Input requests = [ 0 -> [ 125@0 ]  2 -> [ 125@0 ]  4 -> [ 125@0 ]  6 -> [ 125@0 ]  8 -> [ 125@0 ]  10 -> [ 125@0 ]  12 -> [ 125@0 ]  14 -> [ 125@0 ]  16 -> [ 125@0 ]  20 -> [ 125@0 ]  26 -> [ 125@0 ]  32 -> [ 125@0 ]  40 -> [ 125@0 ]  52 -> [ 125@0 ]  56 -> [ 125@0 ]  ], output requests = [ 125 -> [ 0@0 2@0 4@0 6@0 8@0 10@0 12@0 14@0 16@0 20@0 26@0 32@0 40@0 52@0 56@0 ]  ].
2 | network_0/router_0/vc_allocator | Input grants = [ 0 -> 125  ], output grants = [ 125 -> 0  ].
2 | network_0/router_0 | VC allocation failed for VC 0 at input 1.
2 | network_0/router_0 | Completed VC allocation for VC 0 at input 1 (front: 1).
2 | network_0/router_0 |   No output VC allocated.
3 | network_0/router_0 | Beginning VC allocation for VC 0 at input 1 (front: 1).
3 | network_0/router_0 |   Requesting VC 1 at output 62 (in_pri: 0, out_pri: 0).
3 | network_0/router_0/vc_allocator | Input requests = [ 2 -> [ 125@0 ]  3 -> [ 80@0 ]  4 -> [ 125@0 ]  5 -> [ 66@0 ]  6 -> [ 125@0 ]  7 -> [ 96@0 ]  8 -> [ 125@0 ]  9 -> [ 116@0 ]  10 -> [ 125@0 ]  11 -> [ 70@0 ]  12 -> [ 125@0 ]  13 -> [ 76@0 ]  14 -> [ 125@0 ]  16 -> [ 125@0 ]  17 -> [ 116@0 ]  18 -> [ 120@0 ]  20 -> [ 125@0 ]  22 -> [ 70@0 ]  24 -> [ 125@0 ]  26 -> [ 125@0 ]  27 -> [ 98@0 ]  28 -> [ 82@0 ]  32 -> [ 125@0 ]  36 -> [ 116@0 ]  40 -> [ 125@0 ]  42 -> [ 116@0 ]  44 -> [ 125@0 ]  50 -> [ 98@0 ]  52 -> [ 125@0 ]  53 -> [ 96@0 ]  54 -> [ 70@0 ]  56 -> [ 125@0 ]  58 -> [ 104@0 ]  ], output requests = [ 66 -> [ 5@0 ]  70 -> [ 11@0 22@0 54@0 ]  76 -> [ 13@0 ]  80 -> [ 3@0 ]  82 -> [ 28@0 ]  96 -> [ 7@0 53@0 ]  98 -> [ 27@0 50@0 ]  104 -> [ 58@0 ]  116 -> [ 9@0 17@0 36@0 42@0 ]  120 -> [ 18@0 ]  125 -> [ 2@0 4@0 6@0 8@0 10@0 12@0 14@0 16@0 20@0 24@0 26@0 32@0 40@0 44@0 52@0 56@0 ]  ].
3 | network_0/router_0/vc_allocator | Input grants = [ 2 -> 125  3 -> 80  5 -> 66  7 -> 96  9 -> 116  11 -> 70  13 -> 76  18 -> 120  27 -> 98  28 -> 82  58 -> 104  ], output grants = [ 66 -> 5  70 -> 11  76 -> 13  80 -> 3  82 -> 28  96 -> 7  98 -> 27  104 -> 58  116 -> 9  120 -> 18  125 -> 2  ].
3 | network_0/router_0 | Assigning VC 1 at output 62 to VC 0 at input 1.
3 | network_0/router_0 | Completed VC allocation for VC 0 at input 1 (front: 1).
3 | network_0/router_0 |   Acquiring assigned VC 1 at output 62.
3 | network_0/router_0/buf_1/vc_0 | Changing state from vc_alloc to active.
3 | network_0/router_0 | Beginning switch allocation for VC 0 at input 1 (front: 1).
3 | network_0/router_0 |   Requesting output 62.0 (non-spec, pri: 0).
3 | network_0/router_0/sw_allocator | Input requests = [ 1 -> [ 40@0 62@0 ]  2 -> [ 33@0 ]  3 -> [ 48@0 ]  4 -> [ 58@0 ]  5 -> [ 35@0 ]  6 -> [ 38@0 ]  9 -> [ 60@0 ]  13 -> [ 49@0 ]  14 -> [ 41@0 ]  29 -> [ 52@0 ]  ], output requests = [ 33 -> [ 2@0 ]  35 -> [ 5@0 ]  38 -> [ 6@0 ]  40 -> [ 1@0 ]  41 -> [ 14@0 ]  48 -> [ 3@0 ]  49 -> [ 13@0 ]  52 -> [ 29@0 ]  58 -> [ 4@0 ]  60 -> [ 9@0 ]  62 -> [ 1@0 ]  ].
3 | network_0/router_0/sw_allocator | Input grants = [ 1 -> 40  2 -> 33  3 -> 48  4 -> 58  5 -> 35  6 -> 38  9 -> 60  13 -> 49  14 -> 41  29 -> 52  ], output grants = [ 33 -> 2  35 -> 5  38 -> 6  40 -> 1  41 -> 14  48 -> 3  49 -> 13  52 -> 29  58 -> 4  60 -> 9  ].
3 | network_0/router_0 | Switch allocation failed for VC 0 at input 1: Granted to VC 1.
3 | network_0/router_0 | Completed switch allocation for VC 0 at input 1 (front: 1).
3 | network_0/router_0 |   No output port allocated.
3 | network_0/router_0 | Beginning switch allocation for VC 0 at input 1 (front: 1).
3 | network_0/router_0 |   Requesting output 62.0 (non-spec, pri: 0).
3 | network_0/router_0/sw_allocator | Input requests = [ 1 -> [ 62@0 ]  8 -> [ 58@0 ]  11 -> [ 35@0 ]  25 -> [ 49@0 ]  26 -> [ 48@0 ]  ], output requests = [ 35 -> [ 11@0 ]  48 -> [ 26@0 ]  49 -> [ 25@0 ]  58 -> [ 8@0 ]  62 -> [ 1@0 ]  ].
3 | network_0/router_0/sw_allocator | Input grants = [ 1 -> 62  8 -> 58  11 -> 35  25 -> 49  26 -> 48  ], output grants = [ 35 -> 11  48 -> 26  49 -> 25  58 -> 8  62 -> 1  ].
3 | network_0/router_0 | Assigning output 62.0 to VC 0 at input 1.0.
3 | network_0/router_0 | Completed switch allocation for VC 0 at input 1 (front: 1).
3 | network_0/router_0 |   Scheduling switch connection from input 1.0 to output 62.0.
3 | network_0/router_0 | Beginning crossbar traversal for flit 1 from input 1.0 to output 62.0.
3 | network_0/router_0 | Completed crossbar traversal for flit 1 from input 1.0 to output 62.0.
3 | network_0/router_0 | Buffering flit 1 at output 62.
3 | network_0/router_0 | Sending flit 1 to channel at output 62.
4 | network_0/network_0_fchan_30 | Beginning channel traversal for flit 1 with delay 1.
4 | network_0/network_0_fchan_30 | Completed channel traversal for flit 1.
5 | network_0/router_31 | Received flit 1 from channel at input 32.
5 | network_0/router_31 | Adding flit 1 to VC 1 at input 32 (state: idle, empty).
5 | network_0/router_31/buf_32/vc_1 | Changing state from idle to routing.
5 | network_0/router_31 | Beginning routing for VC 1 at input 32 (front: 1).
5 | network_0/router_31 | Completed routing for VC 1 at input 32 (front: 1).
5 | network_0/router_31/buf_32/vc_1 | Changing state from routing to vc_alloc.
5 | network_0/router_31 | Beginning VC allocation for VC 1 at input 32 (front: 1).
5 | network_0/router_31 |   Requesting VC 0 at output 30 (in_pri: 0, out_pri: 0).
5 | network_0/router_31 |   Requesting VC 1 at output 30 (in_pri: 0, out_pri: 0).
5 | network_0/router_31/vc_allocator | Input requests = [ 0 -> [ 90@0 ]  7 -> [ 98@0 ]  8 -> [ 76@0 ]  10 -> [ 112@0 ]  12 -> [ 84@0 ]  18 -> [ 65@0 ]  23 -> [ 100@0 ]  24 -> [ 65@0 ]  27 -> [ 120@0 ]  28 -> [ 84@0 ]  31 -> [ 82@0 ]  34 -> [ 65@0 ]  38 -> [ 102@0 ]  40 -> [ 65@0 ]  42 -> [ 86@0 ]  44 -> [ 74@0 ]  46 -> [ 65@0 ]  49 -> [ 90@0 ]  50 -> [ 65@0 ]  52 -> [ 65@0 ]  53 -> [ 72@0 ]  55 -> [ 112@0 ]  56 -> [ 76@0 ]  58 -> [ 110@0 ]  59 -> [ 65@0 ]  65 -> [ 60@0 61@0 ]  68 -> [ 123@0 ]  70 -> [ 121@0 ]  78 -> [ 113@0 ]  82 -> [ 109@0 ]  90 -> [ 101@0 ]  94 -> [ 97@0 ]  100 -> [ 91@0 ]  106 -> [ 85@0 ]  112 -> [ 79@0 ]  124 -> [ 67@0 ]  ], output requests = [ 60 -> [ 65@0 ]  61 -> [ 65@0 ]  65 -> [ 18@0 24@0 34@0 40@0 46@0 50@0 52@0 59@0 ]  67 -> [ 124@0 ]  72 -> [ 53@0 ]  74 -> [ 44@0 ]  76 -> [ 8@0 56@0 ]  79 -> [ 112@0 ]  82 -> [ 31@0 ]  84 -> [ 12@0 28@0 ]  85 -> [ 106@0 ]  86 -> [ 42@0 ]  90 -> [ 0@0 49@0 ]  91 -> [ 100@0 ]  97 -> [ 94@0 ]  98 -> [ 7@0 ]  100 -> [ 23@0 ]  101 -> [ 90@0 ]  102 -> [ 38@0 ]  109 -> [ 82@0 ]  110 -> [ 58@0 ]  112 -> [ 10@0 55@0 ]  113 -> [ 78@0 ]  120 -> [ 27@0 ]  121 -> [ 70@0 ]  123 -> [ 68@0 ]  ].
5 | network_0/router_31/vc_allocator | Input grants = [ 0 -> 90  7 -> 98  8 -> 76  12 -> 84  18 -> 65  23 -> 100  27 -> 120  31 -> 82  38 -> 102  42 -> 86  44 -> 74  53 -> 72  55 -> 112  58 -> 110  65 -> 60  68 -> 123  70 -> 121  78 -> 113  82 -> 109  90 -> 101  94 -> 97  100 -> 91  106 -> 85  112 -> 79  124 -> 67  ], output grants = [ 60 -> 65  65 -> 18  67 -> 124  72 -> 53  74 -> 44  76 -> 8  79 -> 112  82 -> 31  84 -> 12  85 -> 106  86 -> 42  90 -> 0  91 -> 100  97 -> 94  98 -> 7  100 -> 23  101 -> 90  102 -> 38  109 -> 82  110 -> 58  112 -> 55  113 -> 78  120 -> 27  121 -> 70  123 -> 68  ].
5 | network_0/router_31 | Assigning VC 0 at output 30 to VC 1 at input 32.
5 | network_0/router_31 | Completed VC allocation for VC 1 at input 32 (front: 1).
5 | network_0/router_31 |   Acquiring assigned VC 0 at output 30.
5 | network_0/router_31/buf_32/vc_1 | Changing state from vc_alloc to active.
5 | network_0/router_31 | Beginning switch allocation for VC 1 at input 32 (front: 1).
5 | network_0/router_31 |   Requesting output 30.0 (non-spec, pri: 0).
5 | network_0/router_31/sw_allocator | Input requests = [ 0 -> [ 45@0 ]  3 -> [ 49@0 ]  4 -> [ 38@0 ]  6 -> [ 42@0 ]  9 -> [ 32@0 ]  11 -> [ 50@0 ]  13 -> [ 60@0 ]  15 -> [ 41@0 ]  19 -> [ 51@0 ]  21 -> [ 43@0 ]  22 -> [ 37@0 ]  26 -> [ 36@0 ]  27 -> [ 56@0 ]  29 -> [ 55@0 ]  32 -> [ 30@0 ]  34 -> [ 61@0 ]  35 -> [ 60@0 ]  39 -> [ 56@0 ]  41 -> [ 54@0 ]  45 -> [ 50@0 ]  47 -> [ 48@0 ]  50 -> [ 45@0 ]  53 -> [ 42@0 ]  56 -> [ 39@0 ]  62 -> [ 33@0 ]  ], output requests = [ 30 -> [ 32@0 ]  32 -> [ 9@0 ]  33 -> [ 62@0 ]  36 -> [ 26@0 ]  37 -> [ 22@0 ]  38 -> [ 4@0 ]  39 -> [ 56@0 ]  41 -> [ 15@0 ]  42 -> [ 6@0 53@0 ]  43 -> [ 21@0 ]  45 -> [ 0@0 50@0 ]  48 -> [ 47@0 ]  49 -> [ 3@0 ]  50 -> [ 11@0 45@0 ]  51 -> [ 19@0 ]  54 -> [ 41@0 ]  55 -> [ 29@0 ]  56 -> [ 27@0 39@0 ]  60 -> [ 13@0 35@0 ]  61 -> [ 34@0 ]  ].
5 | network_0/router_31/sw_allocator | Input grants = [ 3 -> 49  4 -> 38  9 -> 32  11 -> 50  15 -> 41  19 -> 51  21 -> 43  22 -> 37  26 -> 36  27 -> 56  29 -> 55  32 -> 30  34 -> 61  35 -> 60  41 -> 54  47 -> 48  50 -> 45  53 -> 42  56 -> 39  62 -> 33  ], output grants = [ 30 -> 32  32 -> 9  33 -> 62  36 -> 26  37 -> 22  38 -> 4  39 -> 56  41 -> 15  42 -> 53  43 -> 21  45 -> 50  48 -> 47  49 -> 3  50 -> 11  51 -> 19  54 -> 41  55 -> 29  56 -> 27  60 -> 35  61 -> 34  ].
5 | network_0/router_31 | Assigning output 30.0 to VC 1 at input 32.0.
5 | network_0/router_31 | Completed switch allocation for VC 1 at input 32 (front: 1).
5 | network_0/router_31 |   Scheduling switch connection from input 32.0 to output 30.0.
5 | network_0/router_31 | Beginning crossbar traversal for flit 1 from input 32.0 to output 30.0.
5 | network_0/router_31 | Completed crossbar traversal for flit 1 from input 32.0 to output 30.0.
5 | network_0/router_31 | Buffering flit 1 at output 30.
5 | network_0/router_31 | Sending flit 1 to channel at output 30.
6 | network_0/network_0_fchan_egress1022 | Beginning channel traversal for flit 1 with delay 1.
6 | network_0/network_0_fchan_egress1022 | Completed channel traversal for flit 1.
7 | node1022 | Ejecting flit 1 (packet 1) from VC 0.
7 | node1022 | Injecting credit for VC 0 into subnet 0.
7 | node1022 | Retiring flit 1 (packet 1, src = 1, dest = 1022, hops = 2, flat = 7).
7 | node1022 | Retiring packet 1 (plat = 7, nlat = 7, frag = 0, src = 1, dest = 1022).
Class 0:
Packet latency average = 74.6373
	minimum = 6
	maximum = 556
Network latency average = 57.3669
	minimum = 6
	maximum = 524
Slowest packet = 107784
Flit latency average = 57.3669
	minimum = 6
	maximum = 524
Slowest flit = 107784
Fragmentation average = 0
	minimum = 0
	maximum = 0
Injected packet rate average = 0.351127
	minimum = 0.22 (at node 71)
	maximum = 0.439 (at node 1004)
Accepted packet rate average = 0.319496
	minimum = 0.188 (at node 810)
	maximum = 0.426 (at node 562)
Injected flit rate average = 0.351127
	minimum = 0.22 (at node 71)
	maximum = 0.439 (at node 1004)
Accepted flit rate average= 0.319496
	minimum = 0.188 (at node 810)
	maximum = 0.426 (at node 562)
Injected packet length average = 1
Accepted packet length average = 1
Total in-flight flits = 33024 (0 measured)
latency change    = 1
throughput change = 1
Class 0:
Packet latency average = 194.751
	minimum = 6
	maximum = 1097
Network latency average = 84.6822
	minimum = 6
	maximum = 725
Slowest packet = 107784
Flit latency average = 84.6822
	minimum = 6
	maximum = 725
Slowest flit = 302572
Fragmentation average = 0
	minimum = 0
	maximum = 0
Injected packet rate average = 0.317779
	minimum = 0.209 (at node 21)
	maximum = 0.4205 (at node 155)
Accepted packet rate average = 0.300995
	minimum = 0.193 (at node 1002)
	maximum = 0.408 (at node 868)
Injected flit rate average = 0.317779
	minimum = 0.209 (at node 21)
	maximum = 0.4205 (at node 155)
Accepted flit rate average= 0.300995
	minimum = 0.193 (at node 1002)
	maximum = 0.408 (at node 868)
Injected packet length average = 1
Accepted packet length average = 1
Total in-flight flits = 35108 (0 measured)
latency change    = 0.616756
throughput change = 0.061466
Class 0:
Packet latency average = 627.515
	minimum = 8
	maximum = 1590
Network latency average = 120.017
	minimum = 8
	maximum = 733
Slowest packet = 630727
Flit latency average = 120.017
	minimum = 8
	maximum = 733
Slowest flit = 688600
Fragmentation average = 0
	minimum = 0
	maximum = 0
Injected packet rate average = 0.281794
	minimum = 0.126 (at node 461)
	maximum = 0.493 (at node 643)
Accepted packet rate average = 0.281526
	minimum = 0.124 (at node 562)
	maximum = 0.492 (at node 380)
Injected flit rate average = 0.281794
	minimum = 0.126 (at node 461)
	maximum = 0.493 (at node 643)
Accepted flit rate average= 0.281526
	minimum = 0.124 (at node 562)
	maximum = 0.492 (at node 380)
Injected packet length average = 1
Accepted packet length average = 1
Total in-flight flits = 35379 (0 measured)
latency change    = 0.689647
throughput change = 0.0691543
Average latency for class 0 exceeded 500 cycles. Aborting simulation.
Too many sample periods needed to converge
Simulation unstable, ending ...
Total run time 5582.93
