BEGIN Configuration File: ../../booksim2/src/examples/flatflyconfig
// $Id$

// Copyright (c) 2007-2015, Trustees of The Leland Stanford Junior University
// All rights reserved.
//
// Redistribution and use in source and binary forms, with or without
// modification, are permitted provided that the following conditions are met:
//
// Redistributions of source code must retain the above copyright notice, this
// list of conditions and the following disclaimer.
// Redistributions in binary form must reproduce the above copyright notice,
// this list of conditions and the following disclaimer in the documentation
// and/or other materials provided with the distribution.
//
// THIS SOFTWARE IS PROVIDED BY THE COPYRIGHT HOLDERS AND CONTRIBUTORS "AS IS"
// AND ANY EXPRESS OR IMPLIED WARRANTIES, INCLUDING, BUT NOT LIMITED TO, THE
// IMPLIED WARRANTIES OF MERCHANTABILITY AND FITNESS FOR A PARTICULAR PURPOSE
// ARE DISCLAIMED. IN NO EVENT SHALL THE COPYRIGHT OWNER OR CONTRIBUTORS BE
// LIABLE FOR ANY DIRECT, INDIRECT, INCIDENTAL, SPECIAL, EXEMPLARY, OR
// CONSEQUENTIAL DAMAGES (INCLUDING, BUT NOT LIMITED TO, PROCUREMENT OF
// SUBSTITUTE GOODS OR SERVICES; LOSS OF USE, DATA, OR PROFITS; OR BUSINESS
// INTERRUPTION) HOWEVER CAUSED AND ON ANY THEORY OF LIABILITY, WHETHER IN
// CONTRACT, STRICT LIABILITY, OR TORT (INCLUDING NEGLIGENCE OR OTHERWISE)
// ARISING IN ANY WAY OUT OF THE USE OF THIS SOFTWARE, EVEN IF ADVISED OF THE
// POSSIBILITY OF SUCH DAMAGE.

//A flattened butterfly configurate file with many tweaks from the
//default settings. 


// Flow control
// Total number of VCs must match the above assignments
num_vcs     = 2;
vc_buf_size = 16;

wait_for_tail_credit = 0;

//
// Router architectureq
//
vc_allocator = islip; 
sw_allocator = islip;
alloc_iters  = 3;

credit_delay   = 0;
routing_delay  = 1;
vc_alloc_delay = 1;
sw_alloc_delay = 1;
st_final_delay = 1;

input_speedup     = 1;
output_speedup    = 1;
internal_speedup  = 1.6;

//
// Traffic
//

warmup_periods = 3;

sample_period  = 1000;  

sim_count          = 1;

traffic       = bitrev;


// Flatfly 
//
// #node = k^(n+1)
//
// x, y, specifies the arrangement of routers in x and y dim
// xr, yr specifiies the arayment of clients in a router
//
topology = flatfly;
subnets = 1;

c  = 16;
k  = 16;
n  = 1;

x  = 16;
y  = 1;
xr = 16;
yr = 1;

use_noc_latency = 0;

//
// Routing
//

routing_function = ugal;

//1: batch mode, 0: injection mode
use_read_write = 0;

//for injection mode
packet_size = 1;
injection_rate = 0.1;

//for batch mode
read_request_size=1;
write_request_size=1;
read_reply_size=1;
write_reply_size=1;

read_request_begin_vc  = 0;
read_request_end_vc    = 3;
write_reply_begin_vc   = 4;
write_reply_end_vc     = 7;
read_reply_begin_vc    = 4;
read_reply_end_vc      = 7;
write_request_begin_vc = 0;
write_request_end_vc   = 3;

//latency: drains all packet, throughput:no drain?
sim_type = latency;

watch_out = -;;END Configuration File: ../../booksim2/src/examples/flatflyconfig
OVERRIDE Parameter: routing_function=ugal
OVERRIDE Parameter: traffic=uniform
OVERRIDE Parameter: injection_rate={0.1}
OVERRIDE Parameter: c=32
OVERRIDE Parameter: k=32
OVERRIDE Parameter: x=32
OVERRIDE Parameter: xr=32
OVERRIDE Parameter: sim_type=latency
OVERRIDE Parameter: seed=1
 Flat Bufferfly 
 k = 32 n = 1 c = 32
 each switch - total radix =  63
 # of switches = 32
 # of channels = 992
 # of nodes ( size of network ) = 1024
0 | node5 | Enqueuing flit 1 (packet 1) at time 0.
0 | traffic_manager | Finding output VC for flit 1:
0 | traffic_manager |   Selected output VC 0.
0 | node5 | Injecting flit 1 into subnet 0 at time 0 with priority 0.
1 | network_0/network_0_fchan_ingress5 | Beginning channel traversal for flit 1 with delay 1.
1 | network_0/network_0_fchan_ingress5 | Completed channel traversal for flit 1.
2 | network_0/router_0 | Received flit 1 from channel at input 5.
2 | network_0/router_0 | Adding flit 1 to VC 0 at input 5 (state: idle, empty).
2 | network_0/router_0/buf_5/vc_0 | Changing state from idle to routing.
2 | network_0/router_0 | Beginning routing for VC 0 at input 5 (front: 1).
2 | network_0/router_0 | Completed routing for VC 0 at input 5 (front: 1).
2 | network_0/router_0 |  MIN tmp_out_port: 412 | network_0/router_0 |  NONMIN tmp_out_port: 35
2 | network_0/router_0/buf_5/vc_0 | Changing state from routing to vc_alloc.
2 | network_0/router_0 | Beginning VC allocation for VC 0 at input 5 (front: 1).
2 | network_0/router_0 |   Requesting VC 1 at output 41 (in_pri: 0, out_pri: 0).
2 | network_0/router_0/vc_allocator | Input requests = [ 8 -> [ 95@0 ]  10 -> [ 83@0 ]  26 -> [ 91@0 ]  32 -> [ 79@0 ]  56 -> [ 113@0 ]  ], output requests = [ 79 -> [ 32@0 ]  83 -> [ 10@0 ]  91 -> [ 26@0 ]  95 -> [ 8@0 ]  113 -> [ 56@0 ]  ].
2 | network_0/router_0/vc_allocator | Input grants = [ 8 -> 95  10 -> 83  26 -> 91  32 -> 79  56 -> 113  ], output grants = [ 79 -> 32  83 -> 10  91 -> 26  95 -> 8  113 -> 56  ].
2 | network_0/router_0 | Assigning VC 1 at output 41 to VC 0 at input 5.
2 | network_0/router_0 | Completed VC allocation for VC 0 at input 5 (front: 1).
2 | network_0/router_0 |   Acquiring assigned VC 1 at output 41.
2 | network_0/router_0/buf_5/vc_0 | Changing state from vc_alloc to active.
2 | network_0/router_0 | Beginning switch allocation for VC 0 at input 5 (front: 1).
2 | network_0/router_0 |   Requesting output 41.0 (non-spec, pri: 0).
2 | network_0/router_0/sw_allocator | Input requests = [ 4 -> [ 47@0 ]  5 -> [ 41@0 ]  13 -> [ 45@0 ]  16 -> [ 39@0 ]  28 -> [ 56@0 ]  ], output requests = [ 39 -> [ 16@0 ]  41 -> [ 5@0 ]  45 -> [ 13@0 ]  47 -> [ 4@0 ]  56 -> [ 28@0 ]  ].
2 | network_0/router_0/sw_allocator | Input grants = [ 4 -> 47  5 -> 41  13 -> 45  16 -> 39  28 -> 56  ], output grants = [ 39 -> 16  41 -> 5  45 -> 13  47 -> 4  56 -> 28  ].
2 | network_0/router_0 | Assigning output 41.0 to VC 0 at input 5.0.
2 | network_0/router_0 | Completed switch allocation for VC 0 at input 5 (front: 1).
2 | network_0/router_0 |   Scheduling switch connection from input 5.0 to output 41.0.
2 | network_0/router_0 | Beginning crossbar traversal for flit 1 from input 5.0 to output 41.0.
2 | network_0/router_0 | Completed crossbar traversal for flit 1 from input 5.0 to output 41.0.
2 | network_0/router_0 | Buffering flit 1 at output 41.
2 | network_0/router_0 | Sending flit 1 to channel at output 41.
3 | network_0/network_0_fchan_9 | Beginning channel traversal for flit 1 with delay 1.
3 | network_0/network_0_fchan_9 | Completed channel traversal for flit 1.
4 | network_0/router_10 | Received flit 1 from channel at input 32.
4 | network_0/router_10 | Adding flit 1 to VC 1 at input 32 (state: idle, empty).
4 | network_0/router_10/buf_32/vc_1 | Changing state from idle to routing.
4 | network_0/router_10 | Beginning routing for VC 1 at input 32 (front: 1).
4 | network_0/router_10 | Completed routing for VC 1 at input 32 (front: 1).
4 | network_0/router_10/buf_32/vc_1 | Changing state from routing to vc_alloc.
4 | network_0/router_10 | Beginning VC allocation for VC 1 at input 32 (front: 1).
4 | network_0/router_10 |   Requesting VC 0 at output 25 (in_pri: 0, out_pri: 0).
4 | network_0/router_10 |   Requesting VC 1 at output 25 (in_pri: 0, out_pri: 0).
4 | network_0/router_10/vc_allocator | Input requests = [ 3 -> [ 71@0 ]  24 -> [ 89@0 ]  50 -> [ 67@0 ]  56 -> [ 98@0 ]  65 -> [ 50@0 51@0 ]  99 -> [ 40@0 41@0 ]  109 -> [ 6@0 7@0 ]  111 -> [ 26@0 27@0 ]  ], output requests = [ 6 -> [ 109@0 ]  7 -> [ 109@0 ]  26 -> [ 111@0 ]  27 -> [ 111@0 ]  40 -> [ 99@0 ]  41 -> [ 99@0 ]  50 -> [ 65@0 ]  51 -> [ 65@0 ]  67 -> [ 50@0 ]  71 -> [ 3@0 ]  89 -> [ 24@0 ]  98 -> [ 56@0 ]  ].
4 | network_0/router_10/vc_allocator | Input grants = [ 3 -> 71  24 -> 89  50 -> 67  56 -> 98  65 -> 50  99 -> 40  109 -> 6  111 -> 26  ], output grants = [ 6 -> 109  26 -> 111  40 -> 99  50 -> 65  67 -> 50  71 -> 3  89 -> 24  98 -> 56  ].
4 | network_0/router_10 | Assigning VC 0 at output 25 to VC 1 at input 32.
4 | network_0/router_10 | Completed VC allocation for VC 1 at input 32 (front: 1).
4 | network_0/router_10 |   Acquiring assigned VC 0 at output 25.
4 | network_0/router_10/buf_32/vc_1 | Changing state from vc_alloc to active.
4 | network_0/router_10 | Beginning switch allocation for VC 1 at input 32 (front: 1).
4 | network_0/router_10 |   Requesting output 25.0 (non-spec, pri: 0).
4 | network_0/router_10/sw_allocator | Input requests = [ 1 -> [ 35@0 ]  12 -> [ 44@0 ]  25 -> [ 33@0 ]  28 -> [ 49@0 ]  32 -> [ 25@0 ]  49 -> [ 20@0 ]  54 -> [ 3@0 ]  55 -> [ 13@0 ]  ], output requests = [ 3 -> [ 54@0 ]  13 -> [ 55@0 ]  20 -> [ 49@0 ]  25 -> [ 32@0 ]  33 -> [ 25@0 ]  35 -> [ 1@0 ]  44 -> [ 12@0 ]  49 -> [ 28@0 ]  ].
4 | network_0/router_10/sw_allocator | Input grants = [ 1 -> 35  12 -> 44  25 -> 33  28 -> 49  32 -> 25  49 -> 20  54 -> 3  55 -> 13  ], output grants = [ 3 -> 54  13 -> 55  20 -> 49  25 -> 32  33 -> 25  35 -> 1  44 -> 12  49 -> 28  ].
4 | network_0/router_10 | Assigning output 25.0 to VC 1 at input 32.0.
4 | network_0/router_10 | Completed switch allocation for VC 1 at input 32 (front: 1).
4 | network_0/router_10 |   Scheduling switch connection from input 32.0 to output 25.0.
4 | network_0/router_10 | Beginning crossbar traversal for flit 1 from input 32.0 to output 25.0.
4 | network_0/router_10 | Completed crossbar traversal for flit 1 from input 32.0 to output 25.0.
4 | network_0/router_10 | Buffering flit 1 at output 25.
4 | network_0/router_10 | Sending flit 1 to channel at output 25.
5 | network_0/network_0_fchan_egress345 | Beginning channel traversal for flit 1 with delay 1.
5 | network_0/network_0_fchan_egress345 | Completed channel traversal for flit 1.
6 | node345 | Ejecting flit 1 (packet 1) from VC 0.
6 | node345 | Injecting credit for VC 0 into subnet 0.
6 | node345 | Retiring flit 1 (packet 1, src = 5, dest = 345, hops = 2, flat = 6).
6 | node345 | Retiring packet 1 (plat = 6, nlat = 6, frag = 0, src = 5, dest = 345).
Class 0:
Packet latency average = 6.47391
	minimum = 4
	maximum = 12
Network latency average = 6.47391
	minimum = 4
	maximum = 12
Slowest packet = 9931
Flit latency average = 6.47391
	minimum = 4
	maximum = 12
Slowest flit = 9931
Fragmentation average = 0
	minimum = 0
	maximum = 0
Injected packet rate average = 0.100098
	minimum = 0.056 (at node 554)
	maximum = 0.143 (at node 112)
Accepted packet rate average = 0.0994199
	minimum = 0.067 (at node 835)
	maximum = 0.137 (at node 17)
Injected flit rate average = 0.100098
	minimum = 0.056 (at node 554)
	maximum = 0.143 (at node 112)
Accepted flit rate average= 0.0994199
	minimum = 0.067 (at node 835)
	maximum = 0.137 (at node 17)
Injected packet length average = 1
Accepted packet length average = 1
Total in-flight flits = 694 (0 measured)
latency change    = 1
throughput change = 1
Class 0:
Packet latency average = 6.47758
	minimum = 4
	maximum = 12
Network latency average = 6.47758
	minimum = 4
	maximum = 12
Slowest packet = 9931
Flit latency average = 6.47758
	minimum = 4
	maximum = 12
Slowest flit = 9931
Fragmentation average = 0
	minimum = 0
	maximum = 0
Injected packet rate average = 0.100072
	minimum = 0.074 (at node 554)
	maximum = 0.1235 (at node 965)
Accepted packet rate average = 0.0997461
	minimum = 0.08 (at node 718)
	maximum = 0.123 (at node 518)
Injected flit rate average = 0.100072
	minimum = 0.074 (at node 554)
	maximum = 0.1235 (at node 965)
Accepted flit rate average= 0.0997461
	minimum = 0.08 (at node 718)
	maximum = 0.123 (at node 518)
Injected packet length average = 1
Accepted packet length average = 1
Total in-flight flits = 667 (0 measured)
latency change    = 0.000567113
throughput change = 0.00327002
Class 0:
Packet latency average = 6.47961
	minimum = 4
	maximum = 12
Network latency average = 6.47961
	minimum = 4
	maximum = 12
Slowest packet = 207251
Flit latency average = 6.47961
	minimum = 4
	maximum = 12
Slowest flit = 207251
Fragmentation average = 0
	minimum = 0
	maximum = 0
Injected packet rate average = 0.100016
	minimum = 0.072 (at node 796)
	maximum = 0.141 (at node 644)
Accepted packet rate average = 0.0999961
	minimum = 0.067 (at node 233)
	maximum = 0.131 (at node 284)
Injected flit rate average = 0.100016
	minimum = 0.072 (at node 796)
	maximum = 0.141 (at node 644)
Accepted flit rate average= 0.0999961
	minimum = 0.067 (at node 233)
	maximum = 0.131 (at node 284)
Injected packet length average = 1
Accepted packet length average = 1
Total in-flight flits = 687 (0 measured)
latency change    = 0.000312348
throughput change = 0.0025001
Warmed up ...Time used is 3000 cycles
Class 0:
Packet latency average = 6.47837
	minimum = 4
	maximum = 12
Network latency average = 6.47837
	minimum = 4
	maximum = 12
Slowest packet = 320131
Flit latency average = 6.47888
	minimum = 4
	maximum = 12
Slowest flit = 320131
Fragmentation average = 0
	minimum = 0
	maximum = 0
Injected packet rate average = 0.10044
	minimum = 0.073 (at node 426)
	maximum = 0.128 (at node 25)
Accepted packet rate average = 0.100457
	minimum = 0.071 (at node 819)
	maximum = 0.132 (at node 391)
Injected flit rate average = 0.10044
	minimum = 0.073 (at node 426)
	maximum = 0.128 (at node 25)
Accepted flit rate average= 0.100457
	minimum = 0.071 (at node 819)
	maximum = 0.132 (at node 391)
Injected packet length average = 1
Accepted packet length average = 1
Total in-flight flits = 670 (670 measured)
latency change    = 0.000191678
throughput change = 0.0045884
Class 0:
Packet latency average = 6.48123
	minimum = 4
	maximum = 12
Network latency average = 6.48123
	minimum = 4
	maximum = 12
Slowest packet = 320131
Flit latency average = 6.48148
	minimum = 4
	maximum = 12
Slowest flit = 320131
Fragmentation average = 0
	minimum = 0
	maximum = 0
Injected packet rate average = 0.100292
	minimum = 0.0825 (at node 36)
	maximum = 0.1215 (at node 39)
Accepted packet rate average = 0.100315
	minimum = 0.0775 (at node 819)
	maximum = 0.1205 (at node 109)
Injected flit rate average = 0.100292
	minimum = 0.0825 (at node 36)
	maximum = 0.1215 (at node 39)
Accepted flit rate average= 0.100315
	minimum = 0.0775 (at node 819)
	maximum = 0.1205 (at node 109)
Injected packet length average = 1
Accepted packet length average = 1
Total in-flight flits = 639 (639 measured)
latency change    = 0.000441997
throughput change = 0.00141644
Class 0:
Packet latency average = 6.48028
	minimum = 4
	maximum = 12
Network latency average = 6.48028
	minimum = 4
	maximum = 12
Slowest packet = 320131
Flit latency average = 6.48045
	minimum = 4
	maximum = 12
Slowest flit = 320131
Fragmentation average = 0
	minimum = 0
	maximum = 0
Injected packet rate average = 0.100388
	minimum = 0.083 (at node 579)
	maximum = 0.116333 (at node 496)
Accepted packet rate average = 0.100396
	minimum = 0.0803333 (at node 172)
	maximum = 0.119667 (at node 109)
Injected flit rate average = 0.100388
	minimum = 0.083 (at node 579)
	maximum = 0.116333 (at node 496)
Accepted flit rate average= 0.100396
	minimum = 0.0803333 (at node 172)
	maximum = 0.119667 (at node 109)
Injected packet length average = 1
Accepted packet length average = 1
Total in-flight flits = 663 (663 measured)
latency change    = 0.000146632
throughput change = 0.00080249
Draining all recorded packets ...
Draining remaining packets ...
Time taken is 6021 cycles
====== Overall Traffic Statistics ======
====== Traffic class 0 ======
Packet latency average = 6.48045 (1 samples)
	minimum = 4 (1 samples)
	maximum = 12 (1 samples)
Network latency average = 6.48045 (1 samples)
	minimum = 4 (1 samples)
	maximum = 12 (1 samples)
Flit latency average = 6.48058 (1 samples)
	minimum = 4 (1 samples)
	maximum = 12 (1 samples)
Fragmentation average = 0 (1 samples)
	minimum = 0 (1 samples)
	maximum = 0 (1 samples)
Injected packet rate average = 0.100388 (1 samples)
	minimum = 0.083 (1 samples)
	maximum = 0.116333 (1 samples)
Accepted packet rate average = 0.100396 (1 samples)
	minimum = 0.0803333 (1 samples)
	maximum = 0.119667 (1 samples)
Injected flit rate average = 0.100388 (1 samples)
	minimum = 0.083 (1 samples)
	maximum = 0.116333 (1 samples)
Accepted flit rate average = 0.100396 (1 samples)
	minimum = 0.0803333 (1 samples)
	maximum = 0.119667 (1 samples)
Injected packet size average = 1 (1 samples)
Accepted packet size average = 1 (1 samples)
Hops average = 2.17081 (1 samples)
Total run time 2860.5
