BEGIN Configuration File: ../../booksim2/src/examples/flatflyconfig
// $Id$

// Copyright (c) 2007-2015, Trustees of The Leland Stanford Junior University
// All rights reserved.
//
// Redistribution and use in source and binary forms, with or without
// modification, are permitted provided that the following conditions are met:
//
// Redistributions of source code must retain the above copyright notice, this
// list of conditions and the following disclaimer.
// Redistributions in binary form must reproduce the above copyright notice,
// this list of conditions and the following disclaimer in the documentation
// and/or other materials provided with the distribution.
//
// THIS SOFTWARE IS PROVIDED BY THE COPYRIGHT HOLDERS AND CONTRIBUTORS "AS IS"
// AND ANY EXPRESS OR IMPLIED WARRANTIES, INCLUDING, BUT NOT LIMITED TO, THE
// IMPLIED WARRANTIES OF MERCHANTABILITY AND FITNESS FOR A PARTICULAR PURPOSE
// ARE DISCLAIMED. IN NO EVENT SHALL THE COPYRIGHT OWNER OR CONTRIBUTORS BE
// LIABLE FOR ANY DIRECT, INDIRECT, INCIDENTAL, SPECIAL, EXEMPLARY, OR
// CONSEQUENTIAL DAMAGES (INCLUDING, BUT NOT LIMITED TO, PROCUREMENT OF
// SUBSTITUTE GOODS OR SERVICES; LOSS OF USE, DATA, OR PROFITS; OR BUSINESS
// INTERRUPTION) HOWEVER CAUSED AND ON ANY THEORY OF LIABILITY, WHETHER IN
// CONTRACT, STRICT LIABILITY, OR TORT (INCLUDING NEGLIGENCE OR OTHERWISE)
// ARISING IN ANY WAY OUT OF THE USE OF THIS SOFTWARE, EVEN IF ADVISED OF THE
// POSSIBILITY OF SUCH DAMAGE.

//A flattened butterfly configurate file with many tweaks from the
//default settings. 


// Flow control
// Total number of VCs must match the above assignments
num_vcs     = 2;
vc_buf_size = 16;

wait_for_tail_credit = 0;

//
// Router architectureq
//
vc_allocator = islip; 
sw_allocator = islip;
alloc_iters  = 3;

credit_delay   = 0;
routing_delay  = 1;
vc_alloc_delay = 1;
sw_alloc_delay = 1;
st_final_delay = 1;

input_speedup     = 1;
output_speedup    = 1;
internal_speedup  = 1.6;

//
// Traffic
//

warmup_periods = 3;

sample_period  = 1000;  

sim_count          = 1;

traffic       = bitrev;


// Flatfly 
//
// #node = k^(n+1)
//
// x, y, specifies the arrangement of routers in x and y dim
// xr, yr specifiies the arayment of clients in a router
//
topology = flatfly;
subnets = 1;

c  = 16;
k  = 16;
n  = 1;

x  = 16;
y  = 1;
xr = 16;
yr = 1;

use_noc_latency = 0;

//
// Routing
//

routing_function = ran_min;

//1: batch mode, 0: injection mode
use_read_write = 0;

//for injection mode
packet_size = 1;
injection_rate = 0.1;

//for batch mode
read_request_size=1;
write_request_size=1;
read_reply_size=1;
write_reply_size=1;

read_request_begin_vc  = 0;
read_request_end_vc    = 3;
write_reply_begin_vc   = 4;
write_reply_end_vc     = 7;
read_reply_begin_vc    = 4;
read_reply_end_vc      = 7;
write_request_begin_vc = 0;
write_request_end_vc   = 3;

//latency: drains all packet, throughput:no drain?
sim_type = latency;

watch_out = -;

END Configuration File: ../../booksim2/src/examples/flatflyconfig
OVERRIDE Parameter: traffic=bitcomp
OVERRIDE Parameter: injection_rate={0.025}
OVERRIDE Parameter: c=32
OVERRIDE Parameter: k=32
OVERRIDE Parameter: x=32
OVERRIDE Parameter: xr=32
OVERRIDE Parameter: sim_type=latency
 Flat Bufferfly 
 k = 32 n = 1 c = 32
 each switch - total radix =  63
 # of switches = 32
 # of channels = 992
 # of nodes ( size of network ) = 1024
0 | node119 | Enqueuing flit 1 (packet 1) at time 0.
0 | traffic_manager | Finding output VC for flit 1:
0 | traffic_manager |   Selected output VC 0.
0 | node119 | Injecting flit 1 into subnet 0 at time 0 with priority 0.
1 | network_0/network_0_fchan_ingress119 | Beginning channel traversal for flit 1 with delay 1.
1 | network_0/network_0_fchan_ingress119 | Completed channel traversal for flit 1.
2 | network_0/router_3 | Received flit 1 from channel at input 23.
2 | network_0/router_3 | Adding flit 1 to VC 0 at input 23 (state: idle, empty).
2 | network_0/router_3/buf_23/vc_0 | Changing state from idle to routing.
2 | network_0/router_3 | Beginning routing for VC 0 at input 23 (front: 1).
2 | network_0/router_3 | Completed routing for VC 0 at input 23 (front: 1).
2 | network_0/router_3/buf_23/vc_0 | Changing state from routing to vc_alloc.
3 | network_0/router_3 | Beginning VC allocation for VC 0 at input 23 (front: 1).
3 | network_0/router_3 |   Requesting VC 0 at output 59 (in_pri: 0, out_pri: 0).
3 | network_0/router_3 |   Requesting VC 1 at output 59 (in_pri: 0, out_pri: 0).
3 | network_0/router_3/vc_allocator | Input requests = [ 46 -> [ 118@0 119@0 ]  ], output requests = [ 118 -> [ 46@0 ]  119 -> [ 46@0 ]  ].
3 | network_0/router_3/vc_allocator | Input grants = [ 46 -> 118  ], output grants = [ 118 -> 46  ].
3 | network_0/router_3 | Assigning VC 0 at output 59 to VC 0 at input 23.
3 | network_0/router_3 | Completed VC allocation for VC 0 at input 23 (front: 1).
3 | network_0/router_3 |   Acquiring assigned VC 0 at output 59.
3 | network_0/router_3/buf_23/vc_0 | Changing state from vc_alloc to active.
3 | network_0/router_3 | Beginning switch allocation for VC 0 at input 23 (front: 1).
3 | network_0/router_3 |   Requesting output 59.0 (non-spec, pri: 0).
3 | network_0/router_3/sw_allocator | Input requests = [ 23 -> [ 59@0 ]  ], output requests = [ 59 -> [ 23@0 ]  ].
3 | network_0/router_3/sw_allocator | Input grants = [ 23 -> 59  ], output grants = [ 59 -> 23  ].
3 | network_0/router_3 | Assigning output 59.0 to VC 0 at input 23.0.
3 | network_0/router_3 | Completed switch allocation for VC 0 at input 23 (front: 1).
3 | network_0/router_3 |   Scheduling switch connection from input 23.0 to output 59.0.
4 | network_0/router_3 | Beginning crossbar traversal for flit 1 from input 23.0 to output 59.0.
4 | network_0/router_3 | Completed crossbar traversal for flit 1 from input 23.0 to output 59.0.
4 | network_0/router_3 | Buffering flit 1 at output 59.
4 | network_0/router_3 | Sending flit 1 to channel at output 59.
5 | network_0/network_0_fchan_120 | Beginning channel traversal for flit 1 with delay 1.
5 | network_0/network_0_fchan_120 | Completed channel traversal for flit 1.
6 | network_0/router_28 | Received flit 1 from channel at input 35.
6 | network_0/router_28 | Adding flit 1 to VC 0 at input 35 (state: idle, empty).
6 | network_0/router_28/buf_35/vc_0 | Changing state from idle to routing.
6 | network_0/router_28 | Beginning routing for VC 0 at input 35 (front: 1).
6 | network_0/router_28 | Completed routing for VC 0 at input 35 (front: 1).
6 | network_0/router_28/buf_35/vc_0 | Changing state from routing to vc_alloc.
6 | network_0/router_28 | Beginning VC allocation for VC 0 at input 35 (front: 1).
6 | network_0/router_28 |   Requesting VC 0 at output 8 (in_pri: 0, out_pri: 0).
6 | network_0/router_28 |   Requesting VC 1 at output 8 (in_pri: 0, out_pri: 0).
6 | network_0/router_28/vc_allocator | Input requests = [ 39 -> [ 70@0 71@0 ]  57 -> [ 70@0 71@0 ]  70 -> [ 16@0 17@0 ]  ], output requests = [ 16 -> [ 70@0 ]  17 -> [ 70@0 ]  70 -> [ 39@0 57@0 ]  71 -> [ 39@0 57@0 ]  ].
6 | network_0/router_28/vc_allocator | Input grants = [ 39 -> 70  70 -> 16  ], output grants = [ 16 -> 70  70 -> 39  ].
6 | network_0/router_28 | Assigning VC 0 at output 8 to VC 0 at input 35.
6 | network_0/router_28 | Completed VC allocation for VC 0 at input 35 (front: 1).
6 | network_0/router_28 |   Acquiring assigned VC 0 at output 8.
6 | network_0/router_28/buf_35/vc_0 | Changing state from vc_alloc to active.
7 | network_0/router_28 | Beginning switch allocation for VC 0 at input 35 (front: 1).
7 | network_0/router_28 |   Requesting output 8.0 (non-spec, pri: 0).
7 | network_0/router_28/sw_allocator | Input requests = [ 19 -> [ 35@0 ]  35 -> [ 8@0 ]  ], output requests = [ 8 -> [ 35@0 ]  35 -> [ 19@0 ]  ].
7 | network_0/router_28/sw_allocator | Input grants = [ 19 -> 35  35 -> 8  ], output grants = [ 8 -> 35  35 -> 19  ].
7 | network_0/router_28 | Assigning output 8.0 to VC 0 at input 35.0.
7 | network_0/router_28 | Completed switch allocation for VC 0 at input 35 (front: 1).
7 | network_0/router_28 |   Scheduling switch connection from input 35.0 to output 8.0.
8 | network_0/router_28 | Beginning crossbar traversal for flit 1 from input 35.0 to output 8.0.
8 | network_0/router_28 | Completed crossbar traversal for flit 1 from input 35.0 to output 8.0.
8 | network_0/router_28 | Buffering flit 1 at output 8.
8 | network_0/router_28 | Sending flit 1 to channel at output 8.
9 | network_0/network_0_fchan_egress904 | Beginning channel traversal for flit 1 with delay 1.
9 | network_0/network_0_fchan_egress904 | Completed channel traversal for flit 1.
10 | node904 | Ejecting flit 1 (packet 1) from VC 0.
10 | node904 | Injecting credit for VC 0 into subnet 0.
10 | node904 | Retiring flit 1 (packet 1, src = 119, dest = 904, hops = 2, flat = 10).
10 | node904 | Retiring packet 1 (plat = 10, nlat = 10, frag = 0, src = 119, dest = 904).
Class 0:
Packet latency average = 12.1612
	minimum = 9
	maximum = 30
Network latency average = 12.1612
	minimum = 9
	maximum = 30
Slowest packet = 21338
Flit latency average = 12.1612
	minimum = 9
	maximum = 30
Slowest flit = 21338
Fragmentation average = 0
	minimum = 0
	maximum = 0
Injected packet rate average = 0.0249951
	minimum = 0.01 (at node 787)
	maximum = 0.041 (at node 587)
Accepted packet rate average = 0.0246855
	minimum = 0.01 (at node 236)
	maximum = 0.041 (at node 436)
Injected flit rate average = 0.0249951
	minimum = 0.01 (at node 787)
	maximum = 0.041 (at node 587)
Accepted flit rate average= 0.0246855
	minimum = 0.01 (at node 236)
	maximum = 0.041 (at node 436)
Injected packet length average = 1
Accepted packet length average = 1
Total in-flight flits = 317 (0 measured)
latency change    = 1
throughput change = 1
Class 0:
Packet latency average = 12.1989
	minimum = 9
	maximum = 30
Network latency average = 12.1989
	minimum = 9
	maximum = 30
Slowest packet = 21338
Flit latency average = 12.1989
	minimum = 9
	maximum = 30
Slowest flit = 21338
Fragmentation average = 0
	minimum = 0
	maximum = 0
Injected packet rate average = 0.0250254
	minimum = 0.0145 (at node 787)
	maximum = 0.0355 (at node 572)
Accepted packet rate average = 0.0248643
	minimum = 0.0145 (at node 236)
	maximum = 0.0355 (at node 451)
Injected flit rate average = 0.0250254
	minimum = 0.0145 (at node 787)
	maximum = 0.0355 (at node 572)
Accepted flit rate average= 0.0248643
	minimum = 0.0145 (at node 236)
	maximum = 0.0355 (at node 451)
Injected packet length average = 1
Accepted packet length average = 1
Total in-flight flits = 330 (0 measured)
latency change    = 0.00308919
throughput change = 0.00718746
Class 0:
Packet latency average = 12.2399
	minimum = 9
	maximum = 28
Network latency average = 12.2399
	minimum = 9
	maximum = 28
Slowest packet = 61603
Flit latency average = 12.2399
	minimum = 9
	maximum = 28
Slowest flit = 61603
Fragmentation average = 0
	minimum = 0
	maximum = 0
Injected packet rate average = 0.0250068
	minimum = 0.012 (at node 159)
	maximum = 0.043 (at node 678)
Accepted packet rate average = 0.0250234
	minimum = 0.012 (at node 735)
	maximum = 0.043 (at node 345)
Injected flit rate average = 0.0250068
	minimum = 0.012 (at node 159)
	maximum = 0.043 (at node 678)
Accepted flit rate average= 0.0250234
	minimum = 0.012 (at node 735)
	maximum = 0.043 (at node 345)
Injected packet length average = 1
Accepted packet length average = 1
Total in-flight flits = 313 (0 measured)
latency change    = 0.00334648
throughput change = 0.00636122
Warmed up ...Time used is 3000 cycles
Class 0:
Packet latency average = 12.1202
	minimum = 9
	maximum = 28
Network latency average = 12.1202
	minimum = 9
	maximum = 28
Slowest packet = 83946
Flit latency average = 12.1304
	minimum = 9
	maximum = 28
Slowest flit = 83946
Fragmentation average = 0
	minimum = 0
	maximum = 0
Injected packet rate average = 0.0249863
	minimum = 0.008 (at node 119)
	maximum = 0.048 (at node 261)
Accepted packet rate average = 0.0249893
	minimum = 0.01 (at node 904)
	maximum = 0.048 (at node 762)
Injected flit rate average = 0.0249863
	minimum = 0.008 (at node 119)
	maximum = 0.048 (at node 261)
Accepted flit rate average= 0.0249893
	minimum = 0.01 (at node 904)
	maximum = 0.048 (at node 762)
Injected packet length average = 1
Accepted packet length average = 1
Total in-flight flits = 310 (310 measured)
latency change    = 0.00987931
throughput change = 0.00136778
Class 0:
Packet latency average = 12.1531
	minimum = 9
	maximum = 34
Network latency average = 12.1531
	minimum = 9
	maximum = 34
Slowest packet = 114841
Flit latency average = 12.1581
	minimum = 9
	maximum = 34
Slowest flit = 114841
Fragmentation average = 0
	minimum = 0
	maximum = 0
Injected packet rate average = 0.0249619
	minimum = 0.015 (at node 528)
	maximum = 0.0385 (at node 261)
Accepted packet rate average = 0.0249521
	minimum = 0.015 (at node 495)
	maximum = 0.0385 (at node 762)
Injected flit rate average = 0.0249619
	minimum = 0.015 (at node 528)
	maximum = 0.0385 (at node 261)
Accepted flit rate average= 0.0249521
	minimum = 0.015 (at node 495)
	maximum = 0.0385 (at node 762)
Injected packet length average = 1
Accepted packet length average = 1
Total in-flight flits = 333 (333 measured)
latency change    = 0.0027129
throughput change = 0.00148722
Class 0:
Packet latency average = 12.1051
	minimum = 9
	maximum = 34
Network latency average = 12.1051
	minimum = 9
	maximum = 34
Slowest packet = 114841
Flit latency average = 12.1086
	minimum = 9
	maximum = 34
Slowest flit = 114841
Fragmentation average = 0
	minimum = 0
	maximum = 0
Injected packet rate average = 0.02493
	minimum = 0.0166667 (at node 977)
	maximum = 0.0336667 (at node 704)
Accepted packet rate average = 0.0249339
	minimum = 0.0163333 (at node 722)
	maximum = 0.0333333 (at node 99)
Injected flit rate average = 0.02493
	minimum = 0.0166667 (at node 977)
	maximum = 0.0336667 (at node 704)
Accepted flit rate average= 0.0249339
	minimum = 0.0163333 (at node 722)
	maximum = 0.0333333 (at node 99)
Injected packet length average = 1
Accepted packet length average = 1
Total in-flight flits = 301 (301 measured)
latency change    = 0.00396663
throughput change = 0.000731099
Draining all recorded packets ...
Draining remaining packets ...
Time taken is 6035 cycles
====== Overall Traffic Statistics ======
====== Traffic class 0 ======
Packet latency average = 12.1025 (1 samples)
	minimum = 9 (1 samples)
	maximum = 34 (1 samples)
Network latency average = 12.1025 (1 samples)
	minimum = 9 (1 samples)
	maximum = 34 (1 samples)
Flit latency average = 12.1065 (1 samples)
	minimum = 9 (1 samples)
	maximum = 34 (1 samples)
Fragmentation average = 0 (1 samples)
	minimum = 0 (1 samples)
	maximum = 0 (1 samples)
Injected packet rate average = 0.02493 (1 samples)
	minimum = 0.0166667 (1 samples)
	maximum = 0.0336667 (1 samples)
Accepted packet rate average = 0.0249339 (1 samples)
	minimum = 0.0163333 (1 samples)
	maximum = 0.0333333 (1 samples)
Injected flit rate average = 0.02493 (1 samples)
	minimum = 0.0166667 (1 samples)
	maximum = 0.0336667 (1 samples)
Accepted flit rate average = 0.0249339 (1 samples)
	minimum = 0.0163333 (1 samples)
	maximum = 0.0333333 (1 samples)
Injected packet size average = 1 (1 samples)
Accepted packet size average = 1 (1 samples)
Hops average = 2 (1 samples)
Total run time 16.7375
