BEGIN Configuration File: ../../booksim2/src/examples/flatflyconfig
// $Id$

// Copyright (c) 2007-2015, Trustees of The Leland Stanford Junior University
// All rights reserved.
//
// Redistribution and use in source and binary forms, with or without
// modification, are permitted provided that the following conditions are met:
//
// Redistributions of source code must retain the above copyright notice, this
// list of conditions and the following disclaimer.
// Redistributions in binary form must reproduce the above copyright notice,
// this list of conditions and the following disclaimer in the documentation
// and/or other materials provided with the distribution.
//
// THIS SOFTWARE IS PROVIDED BY THE COPYRIGHT HOLDERS AND CONTRIBUTORS "AS IS"
// AND ANY EXPRESS OR IMPLIED WARRANTIES, INCLUDING, BUT NOT LIMITED TO, THE
// IMPLIED WARRANTIES OF MERCHANTABILITY AND FITNESS FOR A PARTICULAR PURPOSE
// ARE DISCLAIMED. IN NO EVENT SHALL THE COPYRIGHT OWNER OR CONTRIBUTORS BE
// LIABLE FOR ANY DIRECT, INDIRECT, INCIDENTAL, SPECIAL, EXEMPLARY, OR
// CONSEQUENTIAL DAMAGES (INCLUDING, BUT NOT LIMITED TO, PROCUREMENT OF
// SUBSTITUTE GOODS OR SERVICES; LOSS OF USE, DATA, OR PROFITS; OR BUSINESS
// INTERRUPTION) HOWEVER CAUSED AND ON ANY THEORY OF LIABILITY, WHETHER IN
// CONTRACT, STRICT LIABILITY, OR TORT (INCLUDING NEGLIGENCE OR OTHERWISE)
// ARISING IN ANY WAY OUT OF THE USE OF THIS SOFTWARE, EVEN IF ADVISED OF THE
// POSSIBILITY OF SUCH DAMAGE.

//A flattened butterfly configurate file with many tweaks from the
//default settings. 


// Flow control
// Total number of VCs must match the above assignments
num_vcs     = 2;
vc_buf_size = 16;

wait_for_tail_credit = 0;

//
// Router architectureq
//
vc_allocator = islip; 
sw_allocator = islip;
alloc_iters  = 3;

credit_delay   = 0;
routing_delay  = 1;
vc_alloc_delay = 1;
sw_alloc_delay = 1;
st_final_delay = 1;

input_speedup     = 1;
output_speedup    = 1;
internal_speedup  = 1.6;

//
// Traffic
//

warmup_periods = 3;

sample_period  = 1000;  

sim_count          = 1;

traffic       = bitrev;


// Flatfly 
//
// #node = k^(n+1)
//
// x, y, specifies the arrangement of routers in x and y dim
// xr, yr specifiies the arayment of clients in a router
//
topology = flatfly;
subnets = 1;

c  = 16;
k  = 16;
n  = 1;

x  = 16;
y  = 1;
xr = 16;
yr = 1;

use_noc_latency = 0;

//
// Routing
//

routing_function = ran_min;

//1: batch mode, 0: injection mode
use_read_write = 0;

//for injection mode
packet_size = 1;
injection_rate = 0.1;

//for batch mode
read_request_size=1;
write_request_size=1;
read_reply_size=1;
write_reply_size=1;

read_request_begin_vc  = 0;
read_request_end_vc    = 3;
write_reply_begin_vc   = 4;
write_reply_end_vc     = 7;
read_reply_begin_vc    = 4;
read_reply_end_vc      = 7;
write_request_begin_vc = 0;
write_request_end_vc   = 3;

//latency: drains all packet, throughput:no drain?
sim_type = latency;

watch_out = -;;END Configuration File: ../../booksim2/src/examples/flatflyconfig
OVERRIDE Parameter: traffic=bitcomp
OVERRIDE Parameter: injection_rate={0.05}
OVERRIDE Parameter: c=32
OVERRIDE Parameter: k=32
OVERRIDE Parameter: x=32
OVERRIDE Parameter: xr=32
OVERRIDE Parameter: sim_type=latency
OVERRIDE Parameter: seed=1
 Flat Bufferfly 
 k = 32 n = 1 c = 32
 each switch - total radix =  63
 # of switches = 32
 # of channels = 992
 # of nodes ( size of network ) = 1024
0 | node5 | Enqueuing flit 1 (packet 1) at time 0.
0 | traffic_manager | Finding output VC for flit 1:
0 | traffic_manager |   Selected output VC 0.
0 | node5 | Injecting flit 1 into subnet 0 at time 0 with priority 0.
1 | network_0/network_0_fchan_ingress5 | Beginning channel traversal for flit 1 with delay 1.
1 | network_0/network_0_fchan_ingress5 | Completed channel traversal for flit 1.
2 | network_0/router_0 | Received flit 1 from channel at input 5.
2 | network_0/router_0 | Adding flit 1 to VC 0 at input 5 (state: idle, empty).
2 | network_0/router_0/buf_5/vc_0 | Changing state from idle to routing.
2 | network_0/router_0 | Beginning routing for VC 0 at input 5 (front: 1).
2 | network_0/router_0 | Completed routing for VC 0 at input 5 (front: 1).
2 | network_0/router_0/buf_5/vc_0 | Changing state from routing to vc_alloc.
2 | network_0/router_0 | Beginning VC allocation for VC 0 at input 5 (front: 1).
2 | network_0/router_0 |   Requesting VC 0 at output 62 (in_pri: 0, out_pri: 0).
2 | network_0/router_0 |   Requesting VC 1 at output 62 (in_pri: 0, out_pri: 0).
2 | network_0/router_0/vc_allocator | Input requests = [ 8 -> [ 124@0 125@0 ]  10 -> [ 124@0 125@0 ]  ], output requests = [ 124 -> [ 8@0 10@0 ]  125 -> [ 8@0 10@0 ]  ].
2 | network_0/router_0/vc_allocator | Input grants = [ 8 -> 124  ], output grants = [ 124 -> 8  ].
2 | network_0/router_0 | VC allocation failed for VC 0 at input 5.
2 | network_0/router_0 | Completed VC allocation for VC 0 at input 5 (front: 1).
2 | network_0/router_0 |   No output VC allocated.
3 | network_0/router_0 | Beginning VC allocation for VC 0 at input 5 (front: 1).
3 | network_0/router_0 |   Requesting VC 0 at output 62 (in_pri: 0, out_pri: 0).
3 | network_0/router_0 |   Requesting VC 1 at output 62 (in_pri: 0, out_pri: 0).
3 | network_0/router_0/vc_allocator | Input requests = [ 2 -> [ 124@0 125@0 ]  9 -> [ 124@0 125@0 ]  10 -> [ 124@0 125@0 ]  16 -> [ 124@0 125@0 ]  ], output requests = [ 124 -> [ 2@0 9@0 10@0 16@0 ]  125 -> [ 2@0 9@0 10@0 16@0 ]  ].
3 | network_0/router_0/vc_allocator | Input grants = [ 2 -> 125  9 -> 124  ], output grants = [ 124 -> 9  125 -> 2  ].
3 | network_0/router_0 | VC allocation failed for VC 0 at input 5.
3 | network_0/router_0 | Completed VC allocation for VC 0 at input 5 (front: 1).
3 | network_0/router_0 |   No output VC allocated.
3 | network_0/router_0 | Beginning VC allocation for VC 0 at input 5 (front: 1).
3 | network_0/router_0 |   VC 0 at output 62 is in use by VC 1 at input 4 (front flit: 44).
3 | network_0/router_0 |   Requesting VC 1 at output 62 (in_pri: 0, out_pri: 0).
3 | network_0/router_0/vc_allocator | Input requests = [ 10 -> [ 125@0 ]  16 -> [ 125@0 ]  ], output requests = [ 125 -> [ 10@0 16@0 ]  ].
3 | network_0/router_0/vc_allocator | Input grants = [ 10 -> 125  ], output grants = [ 125 -> 10  ].
3 | network_0/router_0 | Assigning VC 1 at output 62 to VC 0 at input 5.
3 | network_0/router_0 | Completed VC allocation for VC 0 at input 5 (front: 1).
3 | network_0/router_0 |   Acquiring assigned VC 1 at output 62.
3 | network_0/router_0/buf_5/vc_0 | Changing state from vc_alloc to active.
3 | network_0/router_0 | Beginning switch allocation for VC 0 at input 5 (front: 1).
3 | network_0/router_0 |   Requesting output 62.0 (non-spec, pri: 0).
3 | network_0/router_0/sw_allocator | Input requests = [ 4 -> [ 62@0 ]  5 -> [ 62@0 ]  ], output requests = [ 62 -> [ 4@0 5@0 ]  ].
3 | network_0/router_0/sw_allocator | Input grants = [ 4 -> 62  ], output grants = [ 62 -> 4  ].
3 | network_0/router_0 | Switch allocation failed for VC 0 at input 5: No output granted.
3 | network_0/router_0 | Completed switch allocation for VC 0 at input 5 (front: 1).
3 | network_0/router_0 |   No output port allocated.
4 | network_0/router_0 | Beginning switch allocation for VC 0 at input 5 (front: 1).
4 | network_0/router_0 |   Requesting output 62.0 (non-spec, pri: 0).
4 | network_0/router_0/sw_allocator | Input requests = [ 5 -> [ 62@0 ]  8 -> [ 62@0 ]  62 -> [ 6@0 ]  ], output requests = [ 6 -> [ 62@0 ]  62 -> [ 5@0 8@0 ]  ].
4 | network_0/router_0/sw_allocator | Input grants = [ 5 -> 62  62 -> 6  ], output grants = [ 6 -> 62  62 -> 5  ].
4 | network_0/router_0 | Assigning output 62.0 to VC 0 at input 5.0.
4 | network_0/router_0 | Completed switch allocation for VC 0 at input 5 (front: 1).
4 | network_0/router_0 |   Scheduling switch connection from input 5.0 to output 62.0.
4 | network_0/router_0 | Beginning crossbar traversal for flit 1 from input 5.0 to output 62.0.
4 | network_0/router_0 | Completed crossbar traversal for flit 1 from input 5.0 to output 62.0.
4 | network_0/router_0 | Buffering flit 1 at output 62.
5 | network_0/router_0 | Sending flit 1 to channel at output 62.
6 | network_0/network_0_fchan_30 | Beginning channel traversal for flit 1 with delay 1.
6 | network_0/network_0_fchan_30 | Completed channel traversal for flit 1.
7 | network_0/router_31 | Received flit 1 from channel at input 32.
7 | network_0/router_31 | Adding flit 1 to VC 1 at input 32 (state: idle, empty).
7 | network_0/router_31/buf_32/vc_1 | Changing state from idle to routing.
7 | network_0/router_31 | Beginning routing for VC 1 at input 32 (front: 1).
7 | network_0/router_31 | Completed routing for VC 1 at input 32 (front: 1).
7 | network_0/router_31/buf_32/vc_1 | Changing state from routing to vc_alloc.
7 | network_0/router_31 | Beginning VC allocation for VC 1 at input 32 (front: 1).
7 | network_0/router_31 |   Requesting VC 0 at output 26 (in_pri: 0, out_pri: 0).
7 | network_0/router_31 |   Requesting VC 1 at output 26 (in_pri: 0, out_pri: 0).
7 | network_0/router_31/vc_allocator | Input requests = [ 4 -> [ 64@0 65@0 ]  36 -> [ 64@0 65@0 ]  40 -> [ 64@0 65@0 ]  65 -> [ 52@0 53@0 ]  ], output requests = [ 52 -> [ 65@0 ]  53 -> [ 65@0 ]  64 -> [ 4@0 36@0 40@0 ]  65 -> [ 4@0 36@0 40@0 ]  ].
7 | network_0/router_31/vc_allocator | Input grants = [ 4 -> 65  40 -> 64  65 -> 52  ], output grants = [ 52 -> 65  64 -> 40  65 -> 4  ].
7 | network_0/router_31 | Assigning VC 0 at output 26 to VC 1 at input 32.
7 | network_0/router_31 | Completed VC allocation for VC 1 at input 32 (front: 1).
7 | network_0/router_31 |   Acquiring assigned VC 0 at output 26.
7 | network_0/router_31/buf_32/vc_1 | Changing state from vc_alloc to active.
7 | network_0/router_31 | Beginning switch allocation for VC 1 at input 32 (front: 1).
7 | network_0/router_31 |   Requesting output 26.0 (non-spec, pri: 0).
7 | network_0/router_31/sw_allocator | Input requests = [ 2 -> [ 32@0 ]  20 -> [ 32@0 ]  32 -> [ 26@0 ]  ], output requests = [ 26 -> [ 32@0 ]  32 -> [ 2@0 20@0 ]  ].
7 | network_0/router_31/sw_allocator | Input grants = [ 20 -> 32  32 -> 26  ], output grants = [ 26 -> 32  32 -> 20  ].
7 | network_0/router_31 | Assigning output 26.0 to VC 1 at input 32.0.
7 | network_0/router_31 | Completed switch allocation for VC 1 at input 32 (front: 1).
7 | network_0/router_31 |   Scheduling switch connection from input 32.0 to output 26.0.
7 | network_0/router_31 | Beginning crossbar traversal for flit 1 from input 32.0 to output 26.0.
7 | network_0/router_31 | Completed crossbar traversal for flit 1 from input 32.0 to output 26.0.
7 | network_0/router_31 | Buffering flit 1 at output 26.
7 | network_0/router_31 | Sending flit 1 to channel at output 26.
8 | network_0/network_0_fchan_egress1018 | Beginning channel traversal for flit 1 with delay 1.
8 | network_0/network_0_fchan_egress1018 | Completed channel traversal for flit 1.
9 | node1018 | Ejecting flit 1 (packet 1) from VC 0.
9 | node1018 | Injecting credit for VC 0 into subnet 0.
9 | node1018 | Retiring flit 1 (packet 1, src = 5, dest = 1018, hops = 2, flat = 9).
9 | node1018 | Retiring packet 1 (plat = 9, nlat = 9, frag = 0, src = 5, dest = 1018).
Class 0:
Packet latency average = 185.881
	minimum = 6
	maximum = 629
Network latency average = 185.881
	minimum = 6
	maximum = 629
Slowest packet = 17301
Flit latency average = 185.881
	minimum = 6
	maximum = 629
Slowest flit = 17301
Fragmentation average = 0
	minimum = 0
	maximum = 0
Injected packet rate average = 0.0500459
	minimum = 0.031 (at node 1018)
	maximum = 0.068 (at node 761)
Accepted packet rate average = 0.0310449
	minimum = 0.023 (at node 5)
	maximum = 0.04 (at node 126)
Injected flit rate average = 0.0500459
	minimum = 0.031 (at node 1018)
	maximum = 0.068 (at node 761)
Accepted flit rate average= 0.0310449
	minimum = 0.023 (at node 5)
	maximum = 0.04 (at node 126)
Injected packet length average = 1
Accepted packet length average = 1
Total in-flight flits = 19471 (0 measured)
latency change    = 1
throughput change = 1
Class 0:
Packet latency average = 373.462
	minimum = 6
	maximum = 1196
Network latency average = 373.443
	minimum = 6
	maximum = 1196
Slowest packet = 40713
Flit latency average = 373.443
	minimum = 6
	maximum = 1196
Slowest flit = 40713
Fragmentation average = 0
	minimum = 0
	maximum = 0
Injected packet rate average = 0.0467734
	minimum = 0.037 (at node 133)
	maximum = 0.052 (at node 201)
Accepted packet rate average = 0.0311475
	minimum = 0.027 (at node 5)
	maximum = 0.036 (at node 822)
Injected flit rate average = 0.0467734
	minimum = 0.037 (at node 133)
	maximum = 0.052 (at node 201)
Accepted flit rate average= 0.0311475
	minimum = 0.027 (at node 5)
	maximum = 0.036 (at node 822)
Injected packet length average = 1
Accepted packet length average = 1
Total in-flight flits = 32665 (0 measured)
latency change    = 0.502276
throughput change = 0.00329205
Class 0:
Packet latency average = 936.849
	minimum = 183
	maximum = 1648
Network latency average = 902.433
	minimum = 183
	maximum = 1292
Slowest packet = 44913
Flit latency average = 902.433
	minimum = 183
	maximum = 1292
Slowest flit = 77032
Fragmentation average = 0
	minimum = 0
	maximum = 0
Injected packet rate average = 0.0328721
	minimum = 0.022 (at node 211)
	maximum = 0.053 (at node 133)
Accepted packet rate average = 0.03125
	minimum = 0.022 (at node 812)
	maximum = 0.04 (at node 828)
Injected flit rate average = 0.0328721
	minimum = 0.022 (at node 211)
	maximum = 0.053 (at node 133)
Accepted flit rate average= 0.03125
	minimum = 0.022 (at node 812)
	maximum = 0.04 (at node 828)
Injected packet length average = 1
Accepted packet length average = 1
Total in-flight flits = 34633 (0 measured)
latency change    = 0.601364
throughput change = 0.00328125
Average latency for class 0 exceeded 500 cycles. Aborting simulation.
Too many sample periods needed to converge
Simulation unstable, ending ...
Total run time 72.3725
