BEGIN Configuration File: ../../booksim2/src/examples/flatflyconfig
// $Id$

// Copyright (c) 2007-2015, Trustees of The Leland Stanford Junior University
// All rights reserved.
//
// Redistribution and use in source and binary forms, with or without
// modification, are permitted provided that the following conditions are met:
//
// Redistributions of source code must retain the above copyright notice, this
// list of conditions and the following disclaimer.
// Redistributions in binary form must reproduce the above copyright notice,
// this list of conditions and the following disclaimer in the documentation
// and/or other materials provided with the distribution.
//
// THIS SOFTWARE IS PROVIDED BY THE COPYRIGHT HOLDERS AND CONTRIBUTORS "AS IS"
// AND ANY EXPRESS OR IMPLIED WARRANTIES, INCLUDING, BUT NOT LIMITED TO, THE
// IMPLIED WARRANTIES OF MERCHANTABILITY AND FITNESS FOR A PARTICULAR PURPOSE
// ARE DISCLAIMED. IN NO EVENT SHALL THE COPYRIGHT OWNER OR CONTRIBUTORS BE
// LIABLE FOR ANY DIRECT, INDIRECT, INCIDENTAL, SPECIAL, EXEMPLARY, OR
// CONSEQUENTIAL DAMAGES (INCLUDING, BUT NOT LIMITED TO, PROCUREMENT OF
// SUBSTITUTE GOODS OR SERVICES; LOSS OF USE, DATA, OR PROFITS; OR BUSINESS
// INTERRUPTION) HOWEVER CAUSED AND ON ANY THEORY OF LIABILITY, WHETHER IN
// CONTRACT, STRICT LIABILITY, OR TORT (INCLUDING NEGLIGENCE OR OTHERWISE)
// ARISING IN ANY WAY OUT OF THE USE OF THIS SOFTWARE, EVEN IF ADVISED OF THE
// POSSIBILITY OF SUCH DAMAGE.

//A flattened butterfly configurate file with many tweaks from the
//default settings. 


// Flow control
// Total number of VCs must match the above assignments
num_vcs     = 2;
vc_buf_size = 16;

wait_for_tail_credit = 0;

//
// Router architectureq
//
vc_allocator = islip; 
sw_allocator = islip;
alloc_iters  = 3;

credit_delay   = 0;
routing_delay  = 1;
vc_alloc_delay = 1;
sw_alloc_delay = 1;
st_final_delay = 1;

input_speedup     = 1;
output_speedup    = 1;
internal_speedup  = 1.6;

//
// Traffic
//

warmup_periods = 3;

sample_period  = 1000;  

sim_count          = 1;

traffic       = bitrev;


// Flatfly 
//
// #node = k^(n+1)
//
// x, y, specifies the arrangement of routers in x and y dim
// xr, yr specifiies the arayment of clients in a router
//
topology = flatfly;
subnets = 1;

c  = 16;
k  = 16;
n  = 1;

x  = 16;
y  = 1;
xr = 16;
yr = 1;

use_noc_latency = 0;

//
// Routing
//

routing_function = ran_min;

//1: batch mode, 0: injection mode
use_read_write = 0;

//for injection mode
packet_size = 1;
injection_rate = 0.1;

//for batch mode
read_request_size=1;
write_request_size=1;
read_reply_size=1;
write_reply_size=1;

read_request_begin_vc  = 0;
read_request_end_vc    = 3;
write_reply_begin_vc   = 4;
write_reply_end_vc     = 7;
read_reply_begin_vc    = 4;
read_reply_end_vc      = 7;
write_request_begin_vc = 0;
write_request_end_vc   = 3;

//latency: drains all packet, throughput:no drain?
sim_type = latency;

watch_out = -;;END Configuration File: ../../booksim2/src/examples/flatflyconfig
OVERRIDE Parameter: traffic=bitcomp
OVERRIDE Parameter: injection_rate={0.025}
OVERRIDE Parameter: c=32
OVERRIDE Parameter: k=32
OVERRIDE Parameter: x=32
OVERRIDE Parameter: xr=32
OVERRIDE Parameter: sim_type=latency
OVERRIDE Parameter: seed=1
 Flat Bufferfly 
 k = 32 n = 1 c = 32
 each switch - total radix =  63
 # of switches = 32
 # of channels = 992
 # of nodes ( size of network ) = 1024
0 | node171 | Enqueuing flit 1 (packet 1) at time 0.
0 | traffic_manager | Finding output VC for flit 1:
0 | traffic_manager |   Selected output VC 0.
0 | node171 | Injecting flit 1 into subnet 0 at time 0 with priority 0.
1 | network_0/network_0_fchan_ingress171 | Beginning channel traversal for flit 1 with delay 1.
1 | network_0/network_0_fchan_ingress171 | Completed channel traversal for flit 1.
2 | network_0/router_5 | Received flit 1 from channel at input 11.
2 | network_0/router_5 | Adding flit 1 to VC 0 at input 11 (state: idle, empty).
2 | network_0/router_5/buf_11/vc_0 | Changing state from idle to routing.
2 | network_0/router_5 | Beginning routing for VC 0 at input 11 (front: 1).
2 | network_0/router_5 | Completed routing for VC 0 at input 11 (front: 1).
2 | network_0/router_5/buf_11/vc_0 | Changing state from routing to vc_alloc.
3 | network_0/router_5 | Beginning VC allocation for VC 0 at input 11 (front: 1).
3 | network_0/router_5 |   Requesting VC 0 at output 57 (in_pri: 0, out_pri: 0).
3 | network_0/router_5 |   Requesting VC 1 at output 57 (in_pri: 0, out_pri: 0).
3 | network_0/router_5/vc_allocator | Input requests = [ 22 -> [ 114@0 115@0 ]  58 -> [ 114@0 115@0 ]  ], output requests = [ 114 -> [ 22@0 58@0 ]  115 -> [ 22@0 58@0 ]  ].
3 | network_0/router_5/vc_allocator | Input grants = [ 22 -> 114  ], output grants = [ 114 -> 22  ].
3 | network_0/router_5 | Assigning VC 0 at output 57 to VC 0 at input 11.
3 | network_0/router_5 | Completed VC allocation for VC 0 at input 11 (front: 1).
3 | network_0/router_5 |   Acquiring assigned VC 0 at output 57.
3 | network_0/router_5/buf_11/vc_0 | Changing state from vc_alloc to active.
3 | network_0/router_5 | Beginning switch allocation for VC 0 at input 11 (front: 1).
3 | network_0/router_5 |   Requesting output 57.0 (non-spec, pri: 0).
3 | network_0/router_5/sw_allocator | Input requests = [ 11 -> [ 57@0 ]  ], output requests = [ 57 -> [ 11@0 ]  ].
3 | network_0/router_5/sw_allocator | Input grants = [ 11 -> 57  ], output grants = [ 57 -> 11  ].
3 | network_0/router_5 | Assigning output 57.0 to VC 0 at input 11.0.
3 | network_0/router_5 | Completed switch allocation for VC 0 at input 11 (front: 1).
3 | network_0/router_5 |   Scheduling switch connection from input 11.0 to output 57.0.
4 | network_0/router_5 | Beginning crossbar traversal for flit 1 from input 11.0 to output 57.0.
4 | network_0/router_5 | Completed crossbar traversal for flit 1 from input 11.0 to output 57.0.
4 | network_0/router_5 | Buffering flit 1 at output 57.
4 | network_0/router_5 | Sending flit 1 to channel at output 57.
5 | network_0/network_0_fchan_180 | Beginning channel traversal for flit 1 with delay 1.
5 | network_0/network_0_fchan_180 | Completed channel traversal for flit 1.
6 | network_0/router_26 | Received flit 1 from channel at input 37.
6 | network_0/router_26 | Adding flit 1 to VC 0 at input 37 (state: idle, empty).
6 | network_0/router_26/buf_37/vc_0 | Changing state from idle to routing.
6 | network_0/router_26 | Beginning routing for VC 0 at input 37 (front: 1).
6 | network_0/router_26 | Completed routing for VC 0 at input 37 (front: 1).
6 | network_0/router_26/buf_37/vc_0 | Changing state from routing to vc_alloc.
6 | network_0/router_26 | Beginning VC allocation for VC 0 at input 37 (front: 1).
6 | network_0/router_26 |   Requesting VC 0 at output 20 (in_pri: 0, out_pri: 0).
6 | network_0/router_26 |   Requesting VC 1 at output 20 (in_pri: 0, out_pri: 0).
6 | network_0/router_26/vc_allocator | Input requests = [ 58 -> [ 74@0 75@0 ]  74 -> [ 40@0 41@0 ]  ], output requests = [ 40 -> [ 74@0 ]  41 -> [ 74@0 ]  74 -> [ 58@0 ]  75 -> [ 58@0 ]  ].
6 | network_0/router_26/vc_allocator | Input grants = [ 58 -> 74  74 -> 40  ], output grants = [ 40 -> 74  74 -> 58  ].
6 | network_0/router_26 | Assigning VC 0 at output 20 to VC 0 at input 37.
6 | network_0/router_26 | Completed VC allocation for VC 0 at input 37 (front: 1).
6 | network_0/router_26 |   Acquiring assigned VC 0 at output 20.
6 | network_0/router_26/buf_37/vc_0 | Changing state from vc_alloc to active.
7 | network_0/router_26 | Beginning switch allocation for VC 0 at input 37 (front: 1).
7 | network_0/router_26 |   Requesting output 20.0 (non-spec, pri: 0).
7 | network_0/router_26/sw_allocator | Input requests = [ 29 -> [ 37@0 ]  37 -> [ 20@0 ]  ], output requests = [ 20 -> [ 37@0 ]  37 -> [ 29@0 ]  ].
7 | network_0/router_26/sw_allocator | Input grants = [ 29 -> 37  37 -> 20  ], output grants = [ 20 -> 37  37 -> 29  ].
7 | network_0/router_26 | Assigning output 20.0 to VC 0 at input 37.0.
7 | network_0/router_26 | Completed switch allocation for VC 0 at input 37 (front: 1).
7 | network_0/router_26 |   Scheduling switch connection from input 37.0 to output 20.0.
8 | network_0/router_26 | Beginning crossbar traversal for flit 1 from input 37.0 to output 20.0.
8 | network_0/router_26 | Completed crossbar traversal for flit 1 from input 37.0 to output 20.0.
8 | network_0/router_26 | Buffering flit 1 at output 20.
8 | network_0/router_26 | Sending flit 1 to channel at output 20.
9 | network_0/network_0_fchan_egress852 | Beginning channel traversal for flit 1 with delay 1.
9 | network_0/network_0_fchan_egress852 | Completed channel traversal for flit 1.
10 | node852 | Ejecting flit 1 (packet 1) from VC 0.
10 | node852 | Injecting credit for VC 0 into subnet 0.
10 | node852 | Retiring flit 1 (packet 1, src = 171, dest = 852, hops = 2, flat = 10).
10 | node852 | Retiring packet 1 (plat = 10, nlat = 10, frag = 0, src = 171, dest = 852).
Class 0:
Packet latency average = 12.1407
	minimum = 9
	maximum = 31
Network latency average = 12.1407
	minimum = 9
	maximum = 31
Slowest packet = 12388
Flit latency average = 12.1407
	minimum = 9
	maximum = 31
Slowest flit = 12388
Fragmentation average = 0
	minimum = 0
	maximum = 0
Injected packet rate average = 0.0250234
	minimum = 0.012 (at node 558)
	maximum = 0.039 (at node 366)
Accepted packet rate average = 0.0247295
	minimum = 0.012 (at node 91)
	maximum = 0.039 (at node 10)
Injected flit rate average = 0.0250234
	minimum = 0.012 (at node 558)
	maximum = 0.039 (at node 366)
Accepted flit rate average= 0.0247295
	minimum = 0.012 (at node 91)
	maximum = 0.039 (at node 10)
Injected packet length average = 1
Accepted packet length average = 1
Total in-flight flits = 301 (0 measured)
latency change    = 1
throughput change = 1
Class 0:
Packet latency average = 12.1214
	minimum = 9
	maximum = 39
Network latency average = 12.1214
	minimum = 9
	maximum = 39
Slowest packet = 36742
Flit latency average = 12.1214
	minimum = 9
	maximum = 39
Slowest flit = 36742
Fragmentation average = 0
	minimum = 0
	maximum = 0
Injected packet rate average = 0.0249663
	minimum = 0.0145 (at node 495)
	maximum = 0.0365 (at node 7)
Accepted packet rate average = 0.0248184
	minimum = 0.014 (at node 465)
	maximum = 0.0365 (at node 931)
Injected flit rate average = 0.0249663
	minimum = 0.0145 (at node 495)
	maximum = 0.0365 (at node 7)
Accepted flit rate average= 0.0248184
	minimum = 0.014 (at node 465)
	maximum = 0.0365 (at node 931)
Injected packet length average = 1
Accepted packet length average = 1
Total in-flight flits = 303 (0 measured)
latency change    = 0.00158837
throughput change = 0.0035807
Class 0:
Packet latency average = 12.1827
	minimum = 9
	maximum = 26
Network latency average = 12.1827
	minimum = 9
	maximum = 26
Slowest packet = 56137
Flit latency average = 12.1827
	minimum = 9
	maximum = 26
Slowest flit = 56137
Fragmentation average = 0
	minimum = 0
	maximum = 0
Injected packet rate average = 0.0251006
	minimum = 0.009 (at node 153)
	maximum = 0.043 (at node 881)
Accepted packet rate average = 0.0250479
	minimum = 0.009 (at node 870)
	maximum = 0.043 (at node 142)
Injected flit rate average = 0.0251006
	minimum = 0.009 (at node 153)
	maximum = 0.043 (at node 881)
Accepted flit rate average= 0.0250479
	minimum = 0.009 (at node 870)
	maximum = 0.043 (at node 142)
Injected packet length average = 1
Accepted packet length average = 1
Total in-flight flits = 357 (0 measured)
latency change    = 0.0050243
throughput change = 0.00916215
Warmed up ...Time used is 3000 cycles
Class 0:
Packet latency average = 12.3362
	minimum = 9
	maximum = 31
Network latency average = 12.3362
	minimum = 9
	maximum = 31
Slowest packet = 79440
Flit latency average = 12.3542
	minimum = 9
	maximum = 31
Slowest flit = 79440
Fragmentation average = 0
	minimum = 0
	maximum = 0
Injected packet rate average = 0.024957
	minimum = 0.01 (at node 481)
	maximum = 0.043 (at node 720)
Accepted packet rate average = 0.0250244
	minimum = 0.009 (at node 457)
	maximum = 0.045 (at node 303)
Injected flit rate average = 0.024957
	minimum = 0.01 (at node 481)
	maximum = 0.043 (at node 720)
Accepted flit rate average= 0.0250244
	minimum = 0.009 (at node 457)
	maximum = 0.045 (at node 303)
Injected packet length average = 1
Accepted packet length average = 1
Total in-flight flits = 288 (288 measured)
latency change    = 0.012443
throughput change = 0.000936585
Class 0:
Packet latency average = 12.3299
	minimum = 9
	maximum = 37
Network latency average = 12.3299
	minimum = 9
	maximum = 37
Slowest packet = 123778
Flit latency average = 12.3389
	minimum = 9
	maximum = 37
Slowest flit = 123778
Fragmentation average = 0
	minimum = 0
	maximum = 0
Injected packet rate average = 0.025105
	minimum = 0.0135 (at node 985)
	maximum = 0.0375 (at node 746)
Accepted packet rate average = 0.0251187
	minimum = 0.0135 (at node 38)
	maximum = 0.038 (at node 277)
Injected flit rate average = 0.025105
	minimum = 0.0135 (at node 985)
	maximum = 0.0375 (at node 746)
Accepted flit rate average= 0.0251187
	minimum = 0.0135 (at node 38)
	maximum = 0.038 (at node 277)
Injected packet length average = 1
Accepted packet length average = 1
Total in-flight flits = 329 (329 measured)
latency change    = 0.000507848
throughput change = 0.00375173
Class 0:
Packet latency average = 12.2826
	minimum = 9
	maximum = 37
Network latency average = 12.2826
	minimum = 9
	maximum = 37
Slowest packet = 123778
Flit latency average = 12.2888
	minimum = 9
	maximum = 37
Slowest flit = 123778
Fragmentation average = 0
	minimum = 0
	maximum = 0
Injected packet rate average = 0.0250352
	minimum = 0.015 (at node 316)
	maximum = 0.0356667 (at node 565)
Accepted packet rate average = 0.0250505
	minimum = 0.0153333 (at node 707)
	maximum = 0.0353333 (at node 458)
Injected flit rate average = 0.0250352
	minimum = 0.015 (at node 316)
	maximum = 0.0356667 (at node 565)
Accepted flit rate average= 0.0250505
	minimum = 0.0153333 (at node 707)
	maximum = 0.0353333 (at node 458)
Injected packet length average = 1
Accepted packet length average = 1
Total in-flight flits = 310 (310 measured)
latency change    = 0.00385438
throughput change = 0.00272237
Draining all recorded packets ...
Draining remaining packets ...
Time taken is 6038 cycles
====== Overall Traffic Statistics ======
====== Traffic class 0 ======
Packet latency average = 12.2849 (1 samples)
	minimum = 9 (1 samples)
	maximum = 37 (1 samples)
Network latency average = 12.2849 (1 samples)
	minimum = 9 (1 samples)
	maximum = 37 (1 samples)
Flit latency average = 12.2904 (1 samples)
	minimum = 9 (1 samples)
	maximum = 37 (1 samples)
Fragmentation average = 0 (1 samples)
	minimum = 0 (1 samples)
	maximum = 0 (1 samples)
Injected packet rate average = 0.0250352 (1 samples)
	minimum = 0.015 (1 samples)
	maximum = 0.0356667 (1 samples)
Accepted packet rate average = 0.0250505 (1 samples)
	minimum = 0.0153333 (1 samples)
	maximum = 0.0353333 (1 samples)
Injected flit rate average = 0.0250352 (1 samples)
	minimum = 0.015 (1 samples)
	maximum = 0.0356667 (1 samples)
Accepted flit rate average = 0.0250505 (1 samples)
	minimum = 0.0153333 (1 samples)
	maximum = 0.0353333 (1 samples)
Injected packet size average = 1 (1 samples)
Accepted packet size average = 1 (1 samples)
Hops average = 2 (1 samples)
Total run time 16.2106
