BEGIN Configuration File: ../../booksim2/src/examples/flatflyconfig
// $Id$

// Copyright (c) 2007-2015, Trustees of The Leland Stanford Junior University
// All rights reserved.
//
// Redistribution and use in source and binary forms, with or without
// modification, are permitted provided that the following conditions are met:
//
// Redistributions of source code must retain the above copyright notice, this
// list of conditions and the following disclaimer.
// Redistributions in binary form must reproduce the above copyright notice,
// this list of conditions and the following disclaimer in the documentation
// and/or other materials provided with the distribution.
//
// THIS SOFTWARE IS PROVIDED BY THE COPYRIGHT HOLDERS AND CONTRIBUTORS "AS IS"
// AND ANY EXPRESS OR IMPLIED WARRANTIES, INCLUDING, BUT NOT LIMITED TO, THE
// IMPLIED WARRANTIES OF MERCHANTABILITY AND FITNESS FOR A PARTICULAR PURPOSE
// ARE DISCLAIMED. IN NO EVENT SHALL THE COPYRIGHT OWNER OR CONTRIBUTORS BE
// LIABLE FOR ANY DIRECT, INDIRECT, INCIDENTAL, SPECIAL, EXEMPLARY, OR
// CONSEQUENTIAL DAMAGES (INCLUDING, BUT NOT LIMITED TO, PROCUREMENT OF
// SUBSTITUTE GOODS OR SERVICES; LOSS OF USE, DATA, OR PROFITS; OR BUSINESS
// INTERRUPTION) HOWEVER CAUSED AND ON ANY THEORY OF LIABILITY, WHETHER IN
// CONTRACT, STRICT LIABILITY, OR TORT (INCLUDING NEGLIGENCE OR OTHERWISE)
// ARISING IN ANY WAY OUT OF THE USE OF THIS SOFTWARE, EVEN IF ADVISED OF THE
// POSSIBILITY OF SUCH DAMAGE.

//A flattened butterfly configurate file with many tweaks from the
//default settings. 


// Flow control
// Total number of VCs must match the above assignments
num_vcs     = 2;
vc_buf_size = 16;

wait_for_tail_credit = 0;

//
// Router architectureq
//
vc_allocator = islip; 
sw_allocator = islip;
alloc_iters  = 3;

credit_delay   = 0;
routing_delay  = 1;
vc_alloc_delay = 1;
sw_alloc_delay = 1;
st_final_delay = 1;

input_speedup     = 1;
output_speedup    = 1;
internal_speedup  = 1.6;

//
// Traffic
//

warmup_periods = 3;

sample_period  = 1000;  

sim_count          = 1;

traffic       = bitrev;


// Flatfly 
//
// #node = k^(n+1)
//
// x, y, specifies the arrangement of routers in x and y dim
// xr, yr specifiies the arayment of clients in a router
//
topology = flatfly;
subnets = 1;

c  = 16;
k  = 16;
n  = 1;

x  = 16;
y  = 1;
xr = 16;
yr = 1;

use_noc_latency = 0;

//
// Routing
//

routing_function = ran_min;

//1: batch mode, 0: injection mode
use_read_write = 0;

//for injection mode
packet_size = 1;
injection_rate = 0.1;

//for batch mode
read_request_size=1;
write_request_size=1;
read_reply_size=1;
write_reply_size=1;

read_request_begin_vc  = 0;
read_request_end_vc    = 3;
write_reply_begin_vc   = 4;
write_reply_end_vc     = 7;
read_reply_begin_vc    = 4;
read_reply_end_vc      = 7;
write_request_begin_vc = 0;
write_request_end_vc   = 3;

//latency: drains all packet, throughput:no drain?
sim_type = latency;

watch_out = -;

END Configuration File: ../../booksim2/src/examples/flatflyconfig
OVERRIDE Parameter: traffic=bitcomp
OVERRIDE Parameter: injection_rate={0.3}
OVERRIDE Parameter: c=32
OVERRIDE Parameter: k=32
OVERRIDE Parameter: x=32
OVERRIDE Parameter: xr=32
OVERRIDE Parameter: sim_type=throughput
 Flat Bufferfly 
 k = 32 n = 1 c = 32
 each switch - total radix =  63
 # of switches = 32
 # of channels = 992
 # of nodes ( size of network ) = 1024
0 | node13 | Enqueuing flit 1 (packet 1) at time 0.
0 | traffic_manager | Finding output VC for flit 1:
0 | traffic_manager |   Selected output VC 0.
0 | node13 | Injecting flit 1 into subnet 0 at time 0 with priority 0.
1 | network_0/network_0_fchan_ingress13 | Beginning channel traversal for flit 1 with delay 1.
1 | network_0/network_0_fchan_ingress13 | Completed channel traversal for flit 1.
2 | network_0/router_0 | Received flit 1 from channel at input 13.
2 | network_0/router_0 | Adding flit 1 to VC 0 at input 13 (state: idle, empty).
2 | network_0/router_0/buf_13/vc_0 | Changing state from idle to routing.
2 | network_0/router_0 | Beginning routing for VC 0 at input 13 (front: 1).
2 | network_0/router_0 | Completed routing for VC 0 at input 13 (front: 1).
2 | network_0/router_0/buf_13/vc_0 | Changing state from routing to vc_alloc.
3 | network_0/router_0 | Beginning VC allocation for VC 0 at input 13 (front: 1).
3 | network_0/router_0 |   Requesting VC 0 at output 62 (in_pri: 0, out_pri: 0).
3 | network_0/router_0 |   Requesting VC 1 at output 62 (in_pri: 0, out_pri: 0).
3 | network_0/router_0/vc_allocator | Input requests = [ 22 -> [ 124@0 125@0 ]  26 -> [ 124@0 125@0 ]  28 -> [ 124@0 125@0 ]  30 -> [ 124@0 125@0 ]  36 -> [ 124@0 125@0 ]  40 -> [ 124@0 125@0 ]  62 -> [ 124@0 125@0 ]  ], output requests = [ 124 -> [ 22@0 26@0 28@0 30@0 36@0 40@0 62@0 ]  125 -> [ 22@0 26@0 28@0 30@0 36@0 40@0 62@0 ]  ].
3 | network_0/router_0/vc_allocator | Input grants = [ 22 -> 124  ], output grants = [ 124 -> 22  ].
3 | network_0/router_0 | VC allocation failed for VC 0 at input 13.
3 | network_0/router_0 | Completed VC allocation for VC 0 at input 13 (front: 1).
3 | network_0/router_0 |   No output VC allocated.
3 | network_0/router_0 | Beginning VC allocation for VC 0 at input 13 (front: 1).
3 | network_0/router_0 |   VC 0 at output 62 is in use by VC 0 at input 11 (front flit: 0).
3 | network_0/router_0 |   Requesting VC 1 at output 62 (in_pri: 0, out_pri: 0).
3 | network_0/router_0/vc_allocator | Input requests = [ 2 -> [ 125@0 ]  6 -> [ 125@0 ]  14 -> [ 125@0 ]  16 -> [ 125@0 ]  18 -> [ 125@0 ]  20 -> [ 125@0 ]  26 -> [ 125@0 ]  28 -> [ 125@0 ]  30 -> [ 125@0 ]  32 -> [ 125@0 ]  34 -> [ 125@0 ]  36 -> [ 125@0 ]  37 -> [ 125@0 ]  38 -> [ 125@0 ]  40 -> [ 125@0 ]  62 -> [ 125@0 ]  ], output requests = [ 125 -> [ 2@0 6@0 14@0 16@0 18@0 20@0 26@0 28@0 30@0 32@0 34@0 36@0 37@0 38@0 40@0 62@0 ]  ].
3 | network_0/router_0/vc_allocator | Input grants = [ 2 -> 125  ], output grants = [ 125 -> 2  ].
3 | network_0/router_0 | VC allocation failed for VC 0 at input 13.
3 | network_0/router_0 | Completed VC allocation for VC 0 at input 13 (front: 1).
3 | network_0/router_0 |   No output VC allocated.
4 | network_0/router_0 | Beginning VC allocation for VC 0 at input 13 (front: 1).
4 | network_0/router_0 |   Requesting VC 0 at output 62 (in_pri: 0, out_pri: 0).
4 | network_0/router_0 |   VC 1 at output 62 is in use by VC 0 at input 1 (front flit: 297).
4 | network_0/router_0/vc_allocator | Input requests = [ 6 -> [ 124@0 ]  14 -> [ 124@0 ]  16 -> [ 124@0 ]  18 -> [ 124@0 ]  20 -> [ 124@0 ]  26 -> [ 124@0 ]  28 -> [ 124@0 ]  30 -> [ 124@0 ]  32 -> [ 124@0 ]  34 -> [ 124@0 ]  36 -> [ 124@0 ]  37 -> [ 124@0 ]  38 -> [ 124@0 ]  40 -> [ 124@0 ]  62 -> [ 124@0 ]  ], output requests = [ 124 -> [ 6@0 14@0 16@0 18@0 20@0 26@0 28@0 30@0 32@0 34@0 36@0 37@0 38@0 40@0 62@0 ]  ].
4 | network_0/router_0/vc_allocator | Input grants = [ 26 -> 124  ], output grants = [ 124 -> 26  ].
4 | network_0/router_0 | Assigning VC 0 at output 62 to VC 0 at input 13.
4 | network_0/router_0 | Completed VC allocation for VC 0 at input 13 (front: 1).
4 | network_0/router_0 |   Acquiring assigned VC 0 at output 62.
4 | network_0/router_0/buf_13/vc_0 | Changing state from vc_alloc to active.
4 | network_0/router_0 | Beginning switch allocation for VC 0 at input 13 (front: 1).
4 | network_0/router_0 |   Requesting output 62.0 (non-spec, pri: 0).
4 | network_0/router_0/sw_allocator | Input requests = [ 13 -> [ 62@0 ]  ], output requests = [ 62 -> [ 13@0 ]  ].
4 | network_0/router_0/sw_allocator | Input grants = [ 13 -> 62  ], output grants = [ 62 -> 13  ].
4 | network_0/router_0 | Assigning output 62.0 to VC 0 at input 13.0.
4 | network_0/router_0 | Completed switch allocation for VC 0 at input 13 (front: 1).
4 | network_0/router_0 |   Scheduling switch connection from input 13.0 to output 62.0.
5 | network_0/router_0 | Beginning crossbar traversal for flit 1 from input 13.0 to output 62.0.
5 | network_0/router_0 | Completed crossbar traversal for flit 1 from input 13.0 to output 62.0.
5 | network_0/router_0 | Buffering flit 1 at output 62.
6 | network_0/router_0 | Sending flit 1 to channel at output 62.
7 | network_0/network_0_fchan_30 | Beginning channel traversal for flit 1 with delay 1.
7 | network_0/network_0_fchan_30 | Completed channel traversal for flit 1.
8 | network_0/router_31 | Received flit 1 from channel at input 32.
8 | network_0/router_31 | Adding flit 1 to VC 0 at input 32 (state: idle, empty).
8 | network_0/router_31/buf_32/vc_0 | Changing state from idle to routing.
8 | network_0/router_31 | Beginning routing for VC 0 at input 32 (front: 1).
8 | network_0/router_31 | Completed routing for VC 0 at input 32 (front: 1).
8 | network_0/router_31/buf_32/vc_0 | Changing state from routing to vc_alloc.
8 | network_0/router_31 | Beginning VC allocation for VC 0 at input 32 (front: 1).
8 | network_0/router_31 |   Requesting VC 0 at output 18 (in_pri: 0, out_pri: 0).
8 | network_0/router_31 |   Requesting VC 1 at output 18 (in_pri: 0, out_pri: 0).
8 | network_0/router_31/vc_allocator | Input requests = [ 1 -> [ 65@0 ]  2 -> [ 65@0 ]  4 -> [ 65@0 ]  7 -> [ 65@0 ]  9 -> [ 65@0 ]  10 -> [ 65@0 ]  11 -> [ 65@0 ]  12 -> [ 65@0 ]  14 -> [ 65@0 ]  16 -> [ 65@0 ]  17 -> [ 65@0 ]  18 -> [ 65@0 ]  19 -> [ 65@0 ]  20 -> [ 65@0 ]  21 -> [ 65@0 ]  22 -> [ 65@0 ]  24 -> [ 65@0 ]  25 -> [ 65@0 ]  26 -> [ 65@0 ]  27 -> [ 65@0 ]  28 -> [ 65@0 ]  29 -> [ 65@0 ]  30 -> [ 65@0 ]  32 -> [ 65@0 ]  33 -> [ 65@0 ]  34 -> [ 65@0 ]  36 -> [ 65@0 ]  37 -> [ 65@0 ]  42 -> [ 65@0 ]  43 -> [ 65@0 ]  44 -> [ 65@0 ]  45 -> [ 65@0 ]  46 -> [ 65@0 ]  47 -> [ 65@0 ]  48 -> [ 65@0 ]  49 -> [ 65@0 ]  50 -> [ 65@0 ]  51 -> [ 65@0 ]  52 -> [ 65@0 ]  53 -> [ 65@0 ]  54 -> [ 65@0 ]  55 -> [ 65@0 ]  60 -> [ 65@0 ]  61 -> [ 65@0 ]  62 -> [ 65@0 ]  64 -> [ 36@0 37@0 ]  ], output requests = [ 36 -> [ 64@0 ]  37 -> [ 64@0 ]  65 -> [ 1@0 2@0 4@0 7@0 9@0 10@0 11@0 12@0 14@0 16@0 17@0 18@0 19@0 20@0 21@0 22@0 24@0 25@0 26@0 27@0 28@0 29@0 30@0 32@0 33@0 34@0 36@0 37@0 42@0 43@0 44@0 45@0 46@0 47@0 48@0 49@0 50@0 51@0 52@0 53@0 54@0 55@0 60@0 61@0 62@0 ]  ].
8 | network_0/router_31/vc_allocator | Input grants = [ 9 -> 65  64 -> 36  ], output grants = [ 36 -> 64  65 -> 9  ].
8 | network_0/router_31 | Assigning VC 0 at output 18 to VC 0 at input 32.
8 | network_0/router_31 | Completed VC allocation for VC 0 at input 32 (front: 1).
8 | network_0/router_31 |   Acquiring assigned VC 0 at output 18.
8 | network_0/router_31/buf_32/vc_0 | Changing state from vc_alloc to active.
9 | network_0/router_31 | Beginning switch allocation for VC 0 at input 32 (front: 1).
9 | network_0/router_31 |   Requesting output 18.0 (non-spec, pri: 0).
9 | network_0/router_31/sw_allocator | Input requests = [ 4 -> [ 32@0 ]  32 -> [ 18@0 ]  ], output requests = [ 18 -> [ 32@0 ]  32 -> [ 4@0 ]  ].
9 | network_0/router_31/sw_allocator | Input grants = [ 4 -> 32  32 -> 18  ], output grants = [ 18 -> 32  32 -> 4  ].
9 | network_0/router_31 | Assigning output 18.0 to VC 0 at input 32.0.
9 | network_0/router_31 | Completed switch allocation for VC 0 at input 32 (front: 1).
9 | network_0/router_31 |   Scheduling switch connection from input 32.0 to output 18.0.
9 | network_0/router_31 | Beginning crossbar traversal for flit 1 from input 32.0 to output 18.0.
9 | network_0/router_31 | Completed crossbar traversal for flit 1 from input 32.0 to output 18.0.
9 | network_0/router_31 | Buffering flit 1 at output 18.
9 | network_0/router_31 | Sending flit 1 to channel at output 18.
10 | network_0/network_0_fchan_egress1010 | Beginning channel traversal for flit 1 with delay 1.
10 | network_0/network_0_fchan_egress1010 | Completed channel traversal for flit 1.
11 | node1010 | Ejecting flit 1 (packet 1) from VC 0.
11 | node1010 | Injecting credit for VC 0 into subnet 0.
11 | node1010 | Retiring flit 1 (packet 1, src = 13, dest = 1010, hops = 2, flat = 11).
11 | node1010 | Retiring packet 1 (plat = 11, nlat = 11, frag = 0, src = 13, dest = 1010).
Class 0:
Packet latency average = 451.675
	minimum = 10
	maximum = 928
Network latency average = 451.675
	minimum = 10
	maximum = 928
Slowest packet = 21572
Flit latency average = 451.675
	minimum = 10
	maximum = 928
Slowest flit = 21572
Fragmentation average = 0
	minimum = 0
	maximum = 0
Injected packet rate average = 0.0639062
	minimum = 0.061 (at node 265)
	maximum = 0.066 (at node 139)
Accepted packet rate average = 0.0309375
	minimum = 0.028 (at node 0)
	maximum = 0.034 (at node 210)
Injected flit rate average = 0.0639062
	minimum = 0.061 (at node 265)
	maximum = 0.066 (at node 139)
Accepted flit rate average= 0.0309375
	minimum = 0.028 (at node 0)
	maximum = 0.034 (at node 210)
Injected packet length average = 1
Accepted packet length average = 1
Total in-flight flits = 34752 (0 measured)
latency change    = 1
throughput change = 1
Class 0:
Packet latency average = 899.532
	minimum = 10
	maximum = 1838
Network latency average = 747.544
	minimum = 10
	maximum = 1055
Slowest packet = 22452
Flit latency average = 747.544
	minimum = 10
	maximum = 1055
Slowest flit = 25512
Fragmentation average = 0
	minimum = 0
	maximum = 0
Injected packet rate average = 0.0475781
	minimum = 0.046 (at node 96)
	maximum = 0.049 (at node 139)
Accepted packet rate average = 0.0310937
	minimum = 0.03 (at node 0)
	maximum = 0.0325 (at node 88)
Injected flit rate average = 0.0475781
	minimum = 0.046 (at node 96)
	maximum = 0.049 (at node 139)
Accepted flit rate average= 0.0310937
	minimum = 0.03 (at node 0)
	maximum = 0.0325 (at node 88)
Injected packet length average = 1
Accepted packet length average = 1
Total in-flight flits = 34752 (0 measured)
latency change    = 0.497878
throughput change = 0.00502513
Class 0:
Packet latency average = 2238.31
	minimum = 1718
	maximum = 2750
Network latency average = 1054.86
	minimum = 1054
	maximum = 1055
Slowest packet = 61055
Flit latency average = 1054.86
	minimum = 1054
	maximum = 1055
Slowest flit = 61055
Fragmentation average = 0
	minimum = 0
	maximum = 0
Injected packet rate average = 0.03125
	minimum = 0.028 (at node 122)
	maximum = 0.032 (at node 6)
Accepted packet rate average = 0.03125
	minimum = 0.028 (at node 12)
	maximum = 0.032 (at node 0)
Injected flit rate average = 0.03125
	minimum = 0.028 (at node 122)
	maximum = 0.032 (at node 6)
Accepted flit rate average= 0.03125
	minimum = 0.028 (at node 12)
	maximum = 0.032 (at node 0)
Injected packet length average = 1
Accepted packet length average = 1
Total in-flight flits = 34752 (0 measured)
latency change    = 0.59812
throughput change = 0.005
Warmed up ...Time used is 3000 cycles
Class 0:
Packet latency average = nan
	minimum = nan
	maximum = nan
Network latency average = nan
	minimum = nan
	maximum = nan
Slowest packet = -1
Flit latency average = 1054.86
	minimum = 1054
	maximum = 1055
Slowest flit = 93055
Fragmentation average = nan
	minimum = nan
	maximum = nan
Injected packet rate average = 0.03125
	minimum = 0.028 (at node 116)
	maximum = 0.032 (at node 0)
Accepted packet rate average = 0.03125
	minimum = 0.028 (at node 18)
	maximum = 0.032 (at node 0)
Injected flit rate average = 0.03125
	minimum = 0.028 (at node 116)
	maximum = 0.032 (at node 0)
Accepted flit rate average= 0.03125
	minimum = 0.028 (at node 18)
	maximum = 0.032 (at node 0)
Injected packet length average = 1
Accepted packet length average = 1
Total in-flight flits = 34752 (32000 measured)
latency change    = nan
throughput change = 0
Class 0:
Packet latency average = 4067.64
	minimum = 3542
	maximum = 4569
Network latency average = 1054.87
	minimum = 1054
	maximum = 1055
Slowest packet = 130461
Flit latency average = 1054.86
	minimum = 1054
	maximum = 1055
Slowest flit = 93055
Fragmentation average = 0
	minimum = 0
	maximum = 0
Injected packet rate average = 0.03125
	minimum = 0.03 (at node 20)
	maximum = 0.032 (at node 0)
Accepted packet rate average = 0.03125
	minimum = 0.03 (at node 18)
	maximum = 0.032 (at node 0)
Injected flit rate average = 0.03125
	minimum = 0.03 (at node 20)
	maximum = 0.032 (at node 0)
Accepted flit rate average= 0.03125
	minimum = 0.03 (at node 18)
	maximum = 0.032 (at node 0)
Injected packet length average = 1
Accepted packet length average = 1
Total in-flight flits = 34752 (34752 measured)
latency change    = nan
throughput change = 0
Class 0:
Packet latency average = 4515.98
	minimum = 3542
	maximum = 5471
Network latency average = 1054.86
	minimum = 1054
	maximum = 1055
Slowest packet = 130461
Flit latency average = 1054.86
	minimum = 1054
	maximum = 1055
Slowest flit = 93055
Fragmentation average = 0
	minimum = 0
	maximum = 0
Injected packet rate average = 0.03125
	minimum = 0.0306667 (at node 14)
	maximum = 0.032 (at node 0)
Accepted packet rate average = 0.03125
	minimum = 0.0306667 (at node 0)
	maximum = 0.032 (at node 4)
Injected flit rate average = 0.03125
	minimum = 0.0306667 (at node 14)
	maximum = 0.032 (at node 0)
Accepted flit rate average= 0.03125
	minimum = 0.0306667 (at node 0)
	maximum = 0.032 (at node 4)
Injected packet length average = 1
Accepted packet length average = 1
Total in-flight flits = 34752 (34752 measured)
latency change    = 0.0992781
throughput change = 0
Draining remaining packets ...
Class 0:
Remaining flits: 220851 220853 220858 220902 220968 220973 220979 220981 220986 220999 [...] (2752 flits)
Measured flits: 220851 220853 220858 220902 220968 220973 220979 220981 220986 220999 [...] (2752 flits)
Time taken is 7088 cycles
====== Overall Traffic Statistics ======
====== Traffic class 0 ======
Packet latency average = 5002.62 (1 samples)
	minimum = 3542 (1 samples)
	maximum = 6464 (1 samples)
Network latency average = 1054.62 (1 samples)
	minimum = 966 (1 samples)
	maximum = 1055 (1 samples)
Flit latency average = 1054.69 (1 samples)
	minimum = 966 (1 samples)
	maximum = 1055 (1 samples)
Fragmentation average = 0 (1 samples)
	minimum = 0 (1 samples)
	maximum = 0 (1 samples)
Injected packet rate average = 0.03125 (1 samples)
	minimum = 0.0306667 (1 samples)
	maximum = 0.032 (1 samples)
Accepted packet rate average = 0.03125 (1 samples)
	minimum = 0.0306667 (1 samples)
	maximum = 0.032 (1 samples)
Injected flit rate average = 0.03125 (1 samples)
	minimum = 0.0306667 (1 samples)
	maximum = 0.032 (1 samples)
Accepted flit rate average = 0.03125 (1 samples)
	minimum = 0.0306667 (1 samples)
	maximum = 0.032 (1 samples)
Injected packet size average = 1 (1 samples)
Accepted packet size average = 1 (1 samples)
Hops average = 2 (1 samples)
Total run time 128.421
