BEGIN Configuration File: ../../booksim2/src/examples/flatflyconfig
// $Id$

// Copyright (c) 2007-2015, Trustees of The Leland Stanford Junior University
// All rights reserved.
//
// Redistribution and use in source and binary forms, with or without
// modification, are permitted provided that the following conditions are met:
//
// Redistributions of source code must retain the above copyright notice, this
// list of conditions and the following disclaimer.
// Redistributions in binary form must reproduce the above copyright notice,
// this list of conditions and the following disclaimer in the documentation
// and/or other materials provided with the distribution.
//
// THIS SOFTWARE IS PROVIDED BY THE COPYRIGHT HOLDERS AND CONTRIBUTORS "AS IS"
// AND ANY EXPRESS OR IMPLIED WARRANTIES, INCLUDING, BUT NOT LIMITED TO, THE
// IMPLIED WARRANTIES OF MERCHANTABILITY AND FITNESS FOR A PARTICULAR PURPOSE
// ARE DISCLAIMED. IN NO EVENT SHALL THE COPYRIGHT OWNER OR CONTRIBUTORS BE
// LIABLE FOR ANY DIRECT, INDIRECT, INCIDENTAL, SPECIAL, EXEMPLARY, OR
// CONSEQUENTIAL DAMAGES (INCLUDING, BUT NOT LIMITED TO, PROCUREMENT OF
// SUBSTITUTE GOODS OR SERVICES; LOSS OF USE, DATA, OR PROFITS; OR BUSINESS
// INTERRUPTION) HOWEVER CAUSED AND ON ANY THEORY OF LIABILITY, WHETHER IN
// CONTRACT, STRICT LIABILITY, OR TORT (INCLUDING NEGLIGENCE OR OTHERWISE)
// ARISING IN ANY WAY OUT OF THE USE OF THIS SOFTWARE, EVEN IF ADVISED OF THE
// POSSIBILITY OF SUCH DAMAGE.

//A flattened butterfly configurate file with many tweaks from the
//default settings. 


// Flow control
// Total number of VCs must match the above assignments
num_vcs     = 2;
vc_buf_size = 16;

wait_for_tail_credit = 0;

//
// Router architectureq
//
vc_allocator = islip; 
sw_allocator = islip;
alloc_iters  = 3;

credit_delay   = 0;
routing_delay  = 1;
vc_alloc_delay = 1;
sw_alloc_delay = 1;
st_final_delay = 1;

input_speedup     = 1;
output_speedup    = 1;
internal_speedup  = 1.6;

//
// Traffic
//

warmup_periods = 3;

sample_period  = 1000;  

sim_count          = 1;

traffic       = bitrev;


// Flatfly 
//
// #node = k^(n+1)
//
// x, y, specifies the arrangement of routers in x and y dim
// xr, yr specifiies the arayment of clients in a router
//
topology = flatfly;
subnets = 1;

c  = 16;
k  = 16;
n  = 1;

x  = 16;
y  = 1;
xr = 16;
yr = 1;

use_noc_latency = 0;

//
// Routing
//

routing_function = ran_min;

//1: batch mode, 0: injection mode
use_read_write = 0;

//for injection mode
packet_size = 1;
injection_rate = 0.1;

//for batch mode
read_request_size=1;
write_request_size=1;
read_reply_size=1;
write_reply_size=1;

read_request_begin_vc  = 0;
read_request_end_vc    = 3;
write_reply_begin_vc   = 4;
write_reply_end_vc     = 7;
read_reply_begin_vc    = 4;
read_reply_end_vc      = 7;
write_request_begin_vc = 0;
write_request_end_vc   = 3;

//latency: drains all packet, throughput:no drain?
sim_type = latency;

watch_out = -;

END Configuration File: ../../booksim2/src/examples/flatflyconfig
OVERRIDE Parameter: traffic=bitcomp
OVERRIDE Parameter: injection_rate={0.075}
OVERRIDE Parameter: c=32
OVERRIDE Parameter: k=32
OVERRIDE Parameter: x=32
OVERRIDE Parameter: xr=32
OVERRIDE Parameter: sim_type=throughput
 Flat Bufferfly 
 k = 32 n = 1 c = 32
 each switch - total radix =  63
 # of switches = 32
 # of channels = 992
 # of nodes ( size of network ) = 1024
0 | node34 | Enqueuing flit 1 (packet 1) at time 0.
0 | traffic_manager | Finding output VC for flit 1:
0 | traffic_manager |   Selected output VC 0.
0 | node34 | Injecting flit 1 into subnet 0 at time 0 with priority 0.
1 | network_0/network_0_fchan_ingress34 | Beginning channel traversal for flit 1 with delay 1.
1 | network_0/network_0_fchan_ingress34 | Completed channel traversal for flit 1.
2 | network_0/router_1 | Received flit 1 from channel at input 2.
2 | network_0/router_1 | Adding flit 1 to VC 0 at input 2 (state: idle, empty).
2 | network_0/router_1/buf_2/vc_0 | Changing state from idle to routing.
2 | network_0/router_1 | Beginning routing for VC 0 at input 2 (front: 1).
2 | network_0/router_1 | Completed routing for VC 0 at input 2 (front: 1).
2 | network_0/router_1/buf_2/vc_0 | Changing state from routing to vc_alloc.
3 | network_0/router_1 | Beginning VC allocation for VC 0 at input 2 (front: 1).
3 | network_0/router_1 |   Requesting VC 0 at output 61 (in_pri: 0, out_pri: 0).
3 | network_0/router_1 |   Requesting VC 1 at output 61 (in_pri: 0, out_pri: 0).
3 | network_0/router_1/vc_allocator | Input requests = [ 4 -> [ 122@0 123@0 ]  60 -> [ 122@0 123@0 ]  ], output requests = [ 122 -> [ 4@0 60@0 ]  123 -> [ 4@0 60@0 ]  ].
3 | network_0/router_1/vc_allocator | Input grants = [ 4 -> 122  ], output grants = [ 122 -> 4  ].
3 | network_0/router_1 | Assigning VC 0 at output 61 to VC 0 at input 2.
3 | network_0/router_1 | Completed VC allocation for VC 0 at input 2 (front: 1).
3 | network_0/router_1 |   Acquiring assigned VC 0 at output 61.
3 | network_0/router_1/buf_2/vc_0 | Changing state from vc_alloc to active.
3 | network_0/router_1 | Beginning switch allocation for VC 0 at input 2 (front: 1).
3 | network_0/router_1 |   Requesting output 61.0 (non-spec, pri: 0).
3 | network_0/router_1/sw_allocator | Input requests = [ 2 -> [ 61@0 ]  ], output requests = [ 61 -> [ 2@0 ]  ].
3 | network_0/router_1/sw_allocator | Input grants = [ 2 -> 61  ], output grants = [ 61 -> 2  ].
3 | network_0/router_1 | Assigning output 61.0 to VC 0 at input 2.0.
3 | network_0/router_1 | Completed switch allocation for VC 0 at input 2 (front: 1).
3 | network_0/router_1 |   Scheduling switch connection from input 2.0 to output 61.0.
4 | network_0/router_1 | Beginning crossbar traversal for flit 1 from input 2.0 to output 61.0.
4 | network_0/router_1 | Completed crossbar traversal for flit 1 from input 2.0 to output 61.0.
4 | network_0/router_1 | Buffering flit 1 at output 61.
4 | network_0/router_1 | Sending flit 1 to channel at output 61.
5 | network_0/network_0_fchan_60 | Beginning channel traversal for flit 1 with delay 1.
5 | network_0/network_0_fchan_60 | Completed channel traversal for flit 1.
6 | network_0/router_30 | Received flit 1 from channel at input 33.
6 | network_0/router_30 | Adding flit 1 to VC 0 at input 33 (state: idle, empty).
6 | network_0/router_30/buf_33/vc_0 | Changing state from idle to routing.
6 | network_0/router_30 | Beginning routing for VC 0 at input 33 (front: 1).
6 | network_0/router_30 | Completed routing for VC 0 at input 33 (front: 1).
6 | network_0/router_30/buf_33/vc_0 | Changing state from routing to vc_alloc.
6 | network_0/router_30 | Beginning VC allocation for VC 0 at input 33 (front: 1).
6 | network_0/router_30 |   Requesting VC 0 at output 29 (in_pri: 0, out_pri: 0).
6 | network_0/router_30 |   Requesting VC 1 at output 29 (in_pri: 0, out_pri: 0).
6 | network_0/router_30/vc_allocator | Input requests = [ 4 -> [ 66@0 ]  5 -> [ 66@0 ]  28 -> [ 66@0 ]  46 -> [ 66@0 ]  54 -> [ 66@0 ]  66 -> [ 58@0 59@0 ]  ], output requests = [ 58 -> [ 66@0 ]  59 -> [ 66@0 ]  66 -> [ 4@0 5@0 28@0 46@0 54@0 ]  ].
6 | network_0/router_30/vc_allocator | Input grants = [ 46 -> 66  66 -> 58  ], output grants = [ 58 -> 66  66 -> 46  ].
6 | network_0/router_30 | Assigning VC 0 at output 29 to VC 0 at input 33.
6 | network_0/router_30 | Completed VC allocation for VC 0 at input 33 (front: 1).
6 | network_0/router_30 |   Acquiring assigned VC 0 at output 29.
6 | network_0/router_30/buf_33/vc_0 | Changing state from vc_alloc to active.
7 | network_0/router_30 | Beginning switch allocation for VC 0 at input 33 (front: 1).
7 | network_0/router_30 |   Requesting output 29.0 (non-spec, pri: 0).
7 | network_0/router_30/sw_allocator | Input requests = [ 23 -> [ 33@0 ]  33 -> [ 29@0 ]  ], output requests = [ 29 -> [ 33@0 ]  33 -> [ 23@0 ]  ].
7 | network_0/router_30/sw_allocator | Input grants = [ 23 -> 33  33 -> 29  ], output grants = [ 29 -> 33  33 -> 23  ].
7 | network_0/router_30 | Assigning output 29.0 to VC 0 at input 33.0.
7 | network_0/router_30 | Completed switch allocation for VC 0 at input 33 (front: 1).
7 | network_0/router_30 |   Scheduling switch connection from input 33.0 to output 29.0.
8 | network_0/router_30 | Beginning crossbar traversal for flit 1 from input 33.0 to output 29.0.
8 | network_0/router_30 | Completed crossbar traversal for flit 1 from input 33.0 to output 29.0.
8 | network_0/router_30 | Buffering flit 1 at output 29.
8 | network_0/router_30 | Sending flit 1 to channel at output 29.
9 | network_0/network_0_fchan_egress989 | Beginning channel traversal for flit 1 with delay 1.
9 | network_0/network_0_fchan_egress989 | Completed channel traversal for flit 1.
10 | node989 | Ejecting flit 1 (packet 1) from VC 0.
10 | node989 | Injecting credit for VC 0 into subnet 0.
10 | node989 | Retiring flit 1 (packet 1, src = 34, dest = 989, hops = 2, flat = 10).
10 | node989 | Retiring packet 1 (plat = 10, nlat = 10, frag = 0, src = 34, dest = 989).
Class 0:
Packet latency average = 291.178
	minimum = 9
	maximum = 750
Network latency average = 291.178
	minimum = 9
	maximum = 750
Slowest packet = 18406
Flit latency average = 291.178
	minimum = 9
	maximum = 750
Slowest flit = 18406
Fragmentation average = 0
	minimum = 0
	maximum = 0
Injected packet rate average = 0.0635859
	minimum = 0.048 (at node 286)
	maximum = 0.069 (at node 4)
Accepted packet rate average = 0.0309336
	minimum = 0.026 (at node 335)
	maximum = 0.036 (at node 361)
Injected flit rate average = 0.0635859
	minimum = 0.048 (at node 286)
	maximum = 0.069 (at node 4)
Accepted flit rate average= 0.0309336
	minimum = 0.026 (at node 335)
	maximum = 0.036 (at node 361)
Injected packet length average = 1
Accepted packet length average = 1
Total in-flight flits = 34333 (0 measured)
latency change    = 1
throughput change = 1
Class 0:
Packet latency average = 582.47
	minimum = 9
	maximum = 1402
Network latency average = 573.911
	minimum = 9
	maximum = 1055
Slowest packet = 31797
Flit latency average = 573.911
	minimum = 9
	maximum = 1055
Slowest flit = 32998
Fragmentation average = 0
	minimum = 0
	maximum = 0
Injected packet rate average = 0.0475737
	minimum = 0.045 (at node 72)
	maximum = 0.0505 (at node 4)
Accepted packet rate average = 0.0310918
	minimum = 0.0285 (at node 11)
	maximum = 0.0335 (at node 1017)
Injected flit rate average = 0.0475737
	minimum = 0.045 (at node 72)
	maximum = 0.0505 (at node 4)
Accepted flit rate average= 0.0310918
	minimum = 0.0285 (at node 11)
	maximum = 0.0335 (at node 1017)
Injected packet length average = 1
Accepted packet length average = 1
Total in-flight flits = 34747 (0 measured)
latency change    = 0.500098
throughput change = 0.00508826
Class 0:
Packet latency average = 1455.55
	minimum = 816
	maximum = 2091
Network latency average = 1053.89
	minimum = 816
	maximum = 1055
Slowest packet = 63996
Flit latency average = 1053.89
	minimum = 816
	maximum = 1055
Slowest flit = 63996
Fragmentation average = 0
	minimum = 0
	maximum = 0
Injected packet rate average = 0.03125
	minimum = 0.028 (at node 78)
	maximum = 0.032 (at node 6)
Accepted packet rate average = 0.03125
	minimum = 0.028 (at node 949)
	maximum = 0.032 (at node 0)
Injected flit rate average = 0.03125
	minimum = 0.028 (at node 78)
	maximum = 0.032 (at node 6)
Accepted flit rate average= 0.03125
	minimum = 0.028 (at node 949)
	maximum = 0.032 (at node 0)
Injected packet length average = 1
Accepted packet length average = 1
Total in-flight flits = 34747 (0 measured)
latency change    = 0.599827
throughput change = 0.0050625
Warmed up ...Time used is 3000 cycles
Class 0:
Packet latency average = nan
	minimum = nan
	maximum = nan
Network latency average = nan
	minimum = nan
	maximum = nan
Slowest packet = -1
Flit latency average = 1054.74
	minimum = 1053
	maximum = 1055
Slowest flit = 96694
Fragmentation average = nan
	minimum = nan
	maximum = nan
Injected packet rate average = 0.03125
	minimum = 0.028 (at node 72)
	maximum = 0.032 (at node 0)
Accepted packet rate average = 0.03125
	minimum = 0.028 (at node 955)
	maximum = 0.032 (at node 7)
Injected flit rate average = 0.03125
	minimum = 0.028 (at node 72)
	maximum = 0.032 (at node 0)
Accepted flit rate average= 0.03125
	minimum = 0.028 (at node 955)
	maximum = 0.032 (at node 7)
Injected packet length average = 1
Accepted packet length average = 1
Total in-flight flits = 34747 (32000 measured)
latency change    = nan
throughput change = 0
Class 0:
Packet latency average = 2650.97
	minimum = 1866
	maximum = 3448
Network latency average = 1054.74
	minimum = 1053
	maximum = 1055
Slowest packet = 130452
Flit latency average = 1054.74
	minimum = 1053
	maximum = 1055
Slowest flit = 96694
Fragmentation average = 0
	minimum = 0
	maximum = 0
Injected packet rate average = 0.03125
	minimum = 0.03 (at node 66)
	maximum = 0.032 (at node 0)
Accepted packet rate average = 0.03125
	minimum = 0.03 (at node 928)
	maximum = 0.032 (at node 19)
Injected flit rate average = 0.03125
	minimum = 0.03 (at node 66)
	maximum = 0.032 (at node 0)
Accepted flit rate average= 0.03125
	minimum = 0.03 (at node 928)
	maximum = 0.032 (at node 19)
Injected packet length average = 1
Accepted packet length average = 1
Total in-flight flits = 34747 (34747 measured)
latency change    = nan
throughput change = 0
Class 0:
Packet latency average = 2942.43
	minimum = 1866
	maximum = 4009
Network latency average = 1054.74
	minimum = 1053
	maximum = 1055
Slowest packet = 130452
Flit latency average = 1054.74
	minimum = 1053
	maximum = 1055
Slowest flit = 96694
Fragmentation average = 0
	minimum = 0
	maximum = 0
Injected packet rate average = 0.03125
	minimum = 0.0306667 (at node 22)
	maximum = 0.032 (at node 78)
Accepted packet rate average = 0.03125
	minimum = 0.0306667 (at node 27)
	maximum = 0.032 (at node 941)
Injected flit rate average = 0.03125
	minimum = 0.0306667 (at node 22)
	maximum = 0.032 (at node 78)
Accepted flit rate average= 0.03125
	minimum = 0.0306667 (at node 27)
	maximum = 0.032 (at node 941)
Injected packet length average = 1
Accepted packet length average = 1
Total in-flight flits = 34747 (34747 measured)
latency change    = 0.0990529
throughput change = 0
Draining remaining packets ...
Class 0:
Remaining flits: 220921 221049 221177 221305 221433 221561 221689 221817 221945 222073 [...] (2747 flits)
Measured flits: 220921 221049 221177 221305 221433 221561 221689 221817 221945 222073 [...] (2747 flits)
Time taken is 7088 cycles
====== Overall Traffic Statistics ======
====== Traffic class 0 ======
Packet latency average = 3259.24 (1 samples)
	minimum = 1866 (1 samples)
	maximum = 4674 (1 samples)
Network latency average = 1054.57 (1 samples)
	minimum = 969 (1 samples)
	maximum = 1055 (1 samples)
Flit latency average = 1054.62 (1 samples)
	minimum = 969 (1 samples)
	maximum = 1055 (1 samples)
Fragmentation average = 0 (1 samples)
	minimum = 0 (1 samples)
	maximum = 0 (1 samples)
Injected packet rate average = 0.03125 (1 samples)
	minimum = 0.0306667 (1 samples)
	maximum = 0.032 (1 samples)
Accepted packet rate average = 0.03125 (1 samples)
	minimum = 0.0306667 (1 samples)
	maximum = 0.032 (1 samples)
Injected flit rate average = 0.03125 (1 samples)
	minimum = 0.0306667 (1 samples)
	maximum = 0.032 (1 samples)
Accepted flit rate average = 0.03125 (1 samples)
	minimum = 0.0306667 (1 samples)
	maximum = 0.032 (1 samples)
Injected packet size average = 1 (1 samples)
Accepted packet size average = 1 (1 samples)
Hops average = 2 (1 samples)
Total run time 128.566
