BEGIN Configuration File: ../../booksim2/src/examples/flatflyconfig
// $Id$

// Copyright (c) 2007-2015, Trustees of The Leland Stanford Junior University
// All rights reserved.
//
// Redistribution and use in source and binary forms, with or without
// modification, are permitted provided that the following conditions are met:
//
// Redistributions of source code must retain the above copyright notice, this
// list of conditions and the following disclaimer.
// Redistributions in binary form must reproduce the above copyright notice,
// this list of conditions and the following disclaimer in the documentation
// and/or other materials provided with the distribution.
//
// THIS SOFTWARE IS PROVIDED BY THE COPYRIGHT HOLDERS AND CONTRIBUTORS "AS IS"
// AND ANY EXPRESS OR IMPLIED WARRANTIES, INCLUDING, BUT NOT LIMITED TO, THE
// IMPLIED WARRANTIES OF MERCHANTABILITY AND FITNESS FOR A PARTICULAR PURPOSE
// ARE DISCLAIMED. IN NO EVENT SHALL THE COPYRIGHT OWNER OR CONTRIBUTORS BE
// LIABLE FOR ANY DIRECT, INDIRECT, INCIDENTAL, SPECIAL, EXEMPLARY, OR
// CONSEQUENTIAL DAMAGES (INCLUDING, BUT NOT LIMITED TO, PROCUREMENT OF
// SUBSTITUTE GOODS OR SERVICES; LOSS OF USE, DATA, OR PROFITS; OR BUSINESS
// INTERRUPTION) HOWEVER CAUSED AND ON ANY THEORY OF LIABILITY, WHETHER IN
// CONTRACT, STRICT LIABILITY, OR TORT (INCLUDING NEGLIGENCE OR OTHERWISE)
// ARISING IN ANY WAY OUT OF THE USE OF THIS SOFTWARE, EVEN IF ADVISED OF THE
// POSSIBILITY OF SUCH DAMAGE.

//A flattened butterfly configurate file with many tweaks from the
//default settings. 


// Flow control
// Total number of VCs must match the above assignments
num_vcs     = 2;
vc_buf_size = 16;

wait_for_tail_credit = 0;

//
// Router architectureq
//
vc_allocator = islip; 
sw_allocator = islip;
alloc_iters  = 3;

credit_delay   = 0;
routing_delay  = 1;
vc_alloc_delay = 1;
sw_alloc_delay = 1;
st_final_delay = 1;

input_speedup     = 1;
output_speedup    = 1;
internal_speedup  = 1.6;

//
// Traffic
//

warmup_periods = 3;

sample_period  = 1000;  

sim_count          = 1;

traffic       = bitrev;


// Flatfly 
//
// #node = k^(n+1)
//
// x, y, specifies the arrangement of routers in x and y dim
// xr, yr specifiies the arayment of clients in a router
//
topology = flatfly;
subnets = 1;

c  = 16;
k  = 16;
n  = 1;

x  = 16;
y  = 1;
xr = 16;
yr = 1;

use_noc_latency = 0;

//
// Routing
//

routing_function = ran_min;

//1: batch mode, 0: injection mode
use_read_write = 0;

//for injection mode
packet_size = 1;
injection_rate = 0.1;

//for batch mode
read_request_size=1;
write_request_size=1;
read_reply_size=1;
write_reply_size=1;

read_request_begin_vc  = 0;
read_request_end_vc    = 3;
write_reply_begin_vc   = 4;
write_reply_end_vc     = 7;
read_reply_begin_vc    = 4;
read_reply_end_vc      = 7;
write_request_begin_vc = 0;
write_request_end_vc   = 3;

//latency: drains all packet, throughput:no drain?
sim_type = latency;

watch_out = -;;END Configuration File: ../../booksim2/src/examples/flatflyconfig
OVERRIDE Parameter: traffic=bitcomp
OVERRIDE Parameter: injection_rate={0.25}
OVERRIDE Parameter: c=4
OVERRIDE Parameter: k=4
OVERRIDE Parameter: x=4
OVERRIDE Parameter: xr=4
OVERRIDE Parameter: sim_type=latency
OVERRIDE Parameter: seed=1
 Flat Bufferfly 
 k = 4 n = 1 c = 4
 each switch - total radix =  7
 # of switches = 4
 # of channels = 12
 # of nodes ( size of network ) = 16
0 | node2 | Enqueuing flit 1 (packet 1) at time 0.
0 | traffic_manager | Finding output VC for flit 1:
0 | traffic_manager |   Selected output VC 0.
0 | node2 | Injecting flit 1 into subnet 0 at time 0 with priority 0.
1 | network_0/network_0_fchan_ingress2 | Beginning channel traversal for flit 1 with delay 1.
1 | network_0/network_0_fchan_ingress2 | Completed channel traversal for flit 1.
2 | network_0/router_0 | Received flit 1 from channel at input 2.
2 | network_0/router_0 | Adding flit 1 to VC 0 at input 2 (state: idle, empty).
2 | network_0/router_0/buf_2/vc_0 | Changing state from idle to routing.
2 | network_0/router_0 | Beginning routing for VC 0 at input 2 (front: 1).
2 | network_0/router_0 | Completed routing for VC 0 at input 2 (front: 1).
2 | network_0/router_0/buf_2/vc_0 | Changing state from routing to vc_alloc.
2 | network_0/router_0 | Beginning VC allocation for VC 0 at input 2 (front: 1).
2 | network_0/router_0 |   Requesting VC 0 at output 6 (in_pri: 0, out_pri: 0).
2 | network_0/router_0 |   Requesting VC 1 at output 6 (in_pri: 0, out_pri: 0).
2 | network_0/router_0/vc_allocator | Input requests = [ 2 -> [ 12@0 13@0 ]  4 -> [ 12@0 13@0 ]  ], output requests = [ 12 -> [ 2@0 4@0 ]  13 -> [ 2@0 4@0 ]  ].
2 | network_0/router_0/vc_allocator | Input grants = [ 2 -> 12  ], output grants = [ 12 -> 2  ].
2 | network_0/router_0 | VC allocation failed for VC 0 at input 2.
2 | network_0/router_0 | Completed VC allocation for VC 0 at input 2 (front: 1).
2 | network_0/router_0 |   No output VC allocated.
3 | network_0/router_0 | Beginning VC allocation for VC 0 at input 2 (front: 1).
3 | network_0/router_0 |   Requesting VC 0 at output 6 (in_pri: 0, out_pri: 0).
3 | network_0/router_0 |   Requesting VC 1 at output 6 (in_pri: 0, out_pri: 0).
3 | network_0/router_0/vc_allocator | Input requests = [ 0 -> [ 12@0 13@0 ]  4 -> [ 12@0 13@0 ]  ], output requests = [ 12 -> [ 0@0 4@0 ]  13 -> [ 0@0 4@0 ]  ].
3 | network_0/router_0/vc_allocator | Input grants = [ 0 -> 13  4 -> 12  ], output grants = [ 12 -> 4  13 -> 0  ].
3 | network_0/router_0 | Assigning VC 0 at output 6 to VC 0 at input 2.
3 | network_0/router_0 | Completed VC allocation for VC 0 at input 2 (front: 1).
3 | network_0/router_0 |   Acquiring assigned VC 0 at output 6.
3 | network_0/router_0/buf_2/vc_0 | Changing state from vc_alloc to active.
3 | network_0/router_0 | Beginning switch allocation for VC 0 at input 2 (front: 1).
3 | network_0/router_0 |   Requesting output 6.0 (non-spec, pri: 0).
3 | network_0/router_0/sw_allocator | Input requests = [ 0 -> [ 6@0 ]  2 -> [ 6@0 ]  ], output requests = [ 6 -> [ 0@0 2@0 ]  ].
3 | network_0/router_0/sw_allocator | Input grants = [ 2 -> 6  ], output grants = [ 6 -> 2  ].
3 | network_0/router_0 | Assigning output 6.0 to VC 0 at input 2.0.
3 | network_0/router_0 | Completed switch allocation for VC 0 at input 2 (front: 1).
3 | network_0/router_0 |   Scheduling switch connection from input 2.0 to output 6.0.
3 | network_0/router_0 | Beginning crossbar traversal for flit 1 from input 2.0 to output 6.0.
3 | network_0/router_0 | Completed crossbar traversal for flit 1 from input 2.0 to output 6.0.
3 | network_0/router_0 | Buffering flit 1 at output 6.
3 | network_0/router_0 | Sending flit 1 to channel at output 6.
4 | network_0/network_0_fchan_2 | Beginning channel traversal for flit 1 with delay 1.
4 | network_0/network_0_fchan_2 | Completed channel traversal for flit 1.
5 | network_0/router_3 | Received flit 1 from channel at input 4.
5 | network_0/router_3 | Adding flit 1 to VC 0 at input 4 (state: idle, empty).
5 | network_0/router_3/buf_4/vc_0 | Changing state from idle to routing.
5 | network_0/router_3 | Beginning routing for VC 0 at input 4 (front: 1).
5 | network_0/router_3 | Completed routing for VC 0 at input 4 (front: 1).
5 | network_0/router_3/buf_4/vc_0 | Changing state from routing to vc_alloc.
5 | network_0/router_3 | Beginning VC allocation for VC 0 at input 4 (front: 1).
5 | network_0/router_3 |   Requesting VC 0 at output 1 (in_pri: 0, out_pri: 0).
5 | network_0/router_3 |   Requesting VC 1 at output 1 (in_pri: 0, out_pri: 0).
5 | network_0/router_3/vc_allocator | Input requests = [ 8 -> [ 2@0 3@0 ]  ], output requests = [ 2 -> [ 8@0 ]  3 -> [ 8@0 ]  ].
5 | network_0/router_3/vc_allocator | Input grants = [ 8 -> 2  ], output grants = [ 2 -> 8  ].
5 | network_0/router_3 | Assigning VC 0 at output 1 to VC 0 at input 4.
5 | network_0/router_3 | Completed VC allocation for VC 0 at input 4 (front: 1).
5 | network_0/router_3 |   Acquiring assigned VC 0 at output 1.
5 | network_0/router_3/buf_4/vc_0 | Changing state from vc_alloc to active.
5 | network_0/router_3 | Beginning switch allocation for VC 0 at input 4 (front: 1).
5 | network_0/router_3 |   Requesting output 1.0 (non-spec, pri: 0).
5 | network_0/router_3/sw_allocator | Input requests = [ 4 -> [ 1@0 ]  ], output requests = [ 1 -> [ 4@0 ]  ].
5 | network_0/router_3/sw_allocator | Input grants = [ 4 -> 1  ], output grants = [ 1 -> 4  ].
5 | network_0/router_3 | Assigning output 1.0 to VC 0 at input 4.0.
5 | network_0/router_3 | Completed switch allocation for VC 0 at input 4 (front: 1).
5 | network_0/router_3 |   Scheduling switch connection from input 4.0 to output 1.0.
5 | network_0/router_3 | Beginning crossbar traversal for flit 1 from input 4.0 to output 1.0.
5 | network_0/router_3 | Completed crossbar traversal for flit 1 from input 4.0 to output 1.0.
5 | network_0/router_3 | Buffering flit 1 at output 1.
5 | network_0/router_3 | Sending flit 1 to channel at output 1.
6 | network_0/network_0_fchan_egress13 | Beginning channel traversal for flit 1 with delay 1.
6 | network_0/network_0_fchan_egress13 | Completed channel traversal for flit 1.
7 | node13 | Ejecting flit 1 (packet 1) from VC 0.
7 | node13 | Injecting credit for VC 0 into subnet 0.
7 | node13 | Retiring flit 1 (packet 1, src = 2, dest = 13, hops = 2, flat = 7).
7 | node13 | Retiring packet 1 (plat = 7, nlat = 7, frag = 0, src = 2, dest = 13).
Class 0:
Packet latency average = 23.0654
	minimum = 6
	maximum = 80
Network latency average = 23.0654
	minimum = 6
	maximum = 80
Slowest packet = 2869
Flit latency average = 23.0654
	minimum = 6
	maximum = 80
Slowest flit = 2869
Fragmentation average = 0
	minimum = 0
	maximum = 0
Injected packet rate average = 0.248625
	minimum = 0.222 (at node 8)
	maximum = 0.273 (at node 1)
Accepted packet rate average = 0.243562
	minimum = 0.22 (at node 7)
	maximum = 0.26 (at node 14)
Injected flit rate average = 0.248625
	minimum = 0.222 (at node 8)
	maximum = 0.273 (at node 1)
Accepted flit rate average= 0.243562
	minimum = 0.22 (at node 7)
	maximum = 0.26 (at node 14)
Injected packet length average = 1
Accepted packet length average = 1
Total in-flight flits = 81 (0 measured)
latency change    = 1
throughput change = 1
Class 0:
Packet latency average = 22.2195
	minimum = 6
	maximum = 80
Network latency average = 22.2195
	minimum = 6
	maximum = 80
Slowest packet = 2869
Flit latency average = 22.2195
	minimum = 6
	maximum = 80
Slowest flit = 2869
Fragmentation average = 0
	minimum = 0
	maximum = 0
Injected packet rate average = 0.248094
	minimum = 0.2315 (at node 3)
	maximum = 0.261 (at node 9)
Accepted packet rate average = 0.244281
	minimum = 0.23 (at node 7)
	maximum = 0.258 (at node 14)
Injected flit rate average = 0.248094
	minimum = 0.2315 (at node 3)
	maximum = 0.261 (at node 9)
Accepted flit rate average= 0.244281
	minimum = 0.23 (at node 7)
	maximum = 0.258 (at node 14)
Injected packet length average = 1
Accepted packet length average = 1
Total in-flight flits = 122 (0 measured)
latency change    = 0.0380707
throughput change = 0.00294231
Class 0:
Packet latency average = 37.5819
	minimum = 6
	maximum = 117
Network latency average = 37.5819
	minimum = 6
	maximum = 117
Slowest packet = 11090
Flit latency average = 37.5819
	minimum = 6
	maximum = 117
Slowest flit = 11090
Fragmentation average = 0
	minimum = 0
	maximum = 0
Injected packet rate average = 0.252375
	minimum = 0.221 (at node 0)
	maximum = 0.27 (at node 1)
Accepted packet rate average = 0.248875
	minimum = 0.222 (at node 15)
	maximum = 0.264 (at node 3)
Injected flit rate average = 0.252375
	minimum = 0.221 (at node 0)
	maximum = 0.27 (at node 1)
Accepted flit rate average= 0.248875
	minimum = 0.222 (at node 15)
	maximum = 0.264 (at node 3)
Injected packet length average = 1
Accepted packet length average = 1
Total in-flight flits = 178 (0 measured)
latency change    = 0.40877
throughput change = 0.0184581
Warmed up ...Time used is 3000 cycles
Class 0:
Packet latency average = 41.7847
	minimum = 18
	maximum = 123
Network latency average = 41.7847
	minimum = 18
	maximum = 123
Slowest packet = 15297
Flit latency average = 42.386
	minimum = 18
	maximum = 123
Slowest flit = 15297
Fragmentation average = 0
	minimum = 0
	maximum = 0
Injected packet rate average = 0.252563
	minimum = 0.228 (at node 6)
	maximum = 0.278 (at node 5)
Accepted packet rate average = 0.25
	minimum = 0.225 (at node 9)
	maximum = 0.269 (at node 10)
Injected flit rate average = 0.252563
	minimum = 0.228 (at node 6)
	maximum = 0.278 (at node 5)
Accepted flit rate average= 0.25
	minimum = 0.225 (at node 9)
	maximum = 0.269 (at node 10)
Injected packet length average = 1
Accepted packet length average = 1
Total in-flight flits = 219 (219 measured)
latency change    = 0.100582
throughput change = 0.0045
Class 0:
Packet latency average = 49.947
	minimum = 6
	maximum = 181
Network latency average = 49.9057
	minimum = 6
	maximum = 165
Slowest packet = 16357
Flit latency average = 50.0261
	minimum = 6
	maximum = 165
Slowest flit = 16357
Fragmentation average = 0
	minimum = 0
	maximum = 0
Injected packet rate average = 0.253
	minimum = 0.238 (at node 15)
	maximum = 0.266 (at node 14)
Accepted packet rate average = 0.24925
	minimum = 0.238 (at node 0)
	maximum = 0.265 (at node 10)
Injected flit rate average = 0.253
	minimum = 0.238 (at node 15)
	maximum = 0.266 (at node 14)
Accepted flit rate average= 0.24925
	minimum = 0.238 (at node 0)
	maximum = 0.265 (at node 10)
Injected packet length average = 1
Accepted packet length average = 1
Total in-flight flits = 299 (299 measured)
latency change    = 0.163421
throughput change = 0.00300903
Class 0:
Packet latency average = 56.6987
	minimum = 6
	maximum = 236
Network latency average = 55.8141
	minimum = 6
	maximum = 172
Slowest packet = 16357
Flit latency average = 55.8064
	minimum = 6
	maximum = 172
Slowest flit = 20781
Fragmentation average = 0
	minimum = 0
	maximum = 0
Injected packet rate average = 0.251542
	minimum = 0.241333 (at node 10)
	maximum = 0.262 (at node 14)
Accepted packet rate average = 0.2495
	minimum = 0.240333 (at node 5)
	maximum = 0.261333 (at node 10)
Injected flit rate average = 0.251542
	minimum = 0.241333 (at node 10)
	maximum = 0.262 (at node 14)
Accepted flit rate average= 0.2495
	minimum = 0.240333 (at node 5)
	maximum = 0.261333 (at node 10)
Injected packet length average = 1
Accepted packet length average = 1
Total in-flight flits = 277 (277 measured)
latency change    = 0.119079
throughput change = 0.001002
Class 0:
Packet latency average = 60.4435
	minimum = 6
	maximum = 277
Network latency average = 58.2193
	minimum = 6
	maximum = 172
Slowest packet = 16357
Flit latency average = 58.1868
	minimum = 6
	maximum = 172
Slowest flit = 20781
Fragmentation average = 0
	minimum = 0
	maximum = 0
Injected packet rate average = 0.251172
	minimum = 0.245 (at node 10)
	maximum = 0.259 (at node 14)
Accepted packet rate average = 0.249625
	minimum = 0.241 (at node 5)
	maximum = 0.25875 (at node 10)
Injected flit rate average = 0.251172
	minimum = 0.245 (at node 10)
	maximum = 0.259 (at node 14)
Accepted flit rate average= 0.249625
	minimum = 0.241 (at node 5)
	maximum = 0.25875 (at node 10)
Injected packet length average = 1
Accepted packet length average = 1
Total in-flight flits = 278 (278 measured)
latency change    = 0.0619553
throughput change = 0.000500751
Class 0:
Packet latency average = 63.1072
	minimum = 6
	maximum = 277
Network latency average = 60.8205
	minimum = 6
	maximum = 172
Slowest packet = 16357
Flit latency average = 60.7713
	minimum = 6
	maximum = 172
Slowest flit = 20781
Fragmentation average = 0
	minimum = 0
	maximum = 0
Injected packet rate average = 0.2508
	minimum = 0.2464 (at node 6)
	maximum = 0.2576 (at node 14)
Accepted packet rate average = 0.2495
	minimum = 0.2438 (at node 5)
	maximum = 0.2582 (at node 10)
Injected flit rate average = 0.2508
	minimum = 0.2464 (at node 6)
	maximum = 0.2576 (at node 14)
Accepted flit rate average= 0.2495
	minimum = 0.2438 (at node 5)
	maximum = 0.2582 (at node 10)
Injected packet length average = 1
Accepted packet length average = 1
Total in-flight flits = 283 (283 measured)
latency change    = 0.0422098
throughput change = 0.000501002
Class 0:
Packet latency average = 64.5235
	minimum = 6
	maximum = 277
Network latency average = 62.481
	minimum = 6
	maximum = 178
Slowest packet = 16357
Flit latency average = 62.4276
	minimum = 6
	maximum = 178
Slowest flit = 31626
Fragmentation average = 0
	minimum = 0
	maximum = 0
Injected packet rate average = 0.250573
	minimum = 0.243167 (at node 1)
	maximum = 0.258667 (at node 0)
Accepted packet rate average = 0.249583
	minimum = 0.243833 (at node 14)
	maximum = 0.257167 (at node 15)
Injected flit rate average = 0.250573
	minimum = 0.243167 (at node 1)
	maximum = 0.258667 (at node 0)
Accepted flit rate average= 0.249583
	minimum = 0.243833 (at node 14)
	maximum = 0.257167 (at node 15)
Injected packet length average = 1
Accepted packet length average = 1
Total in-flight flits = 273 (273 measured)
latency change    = 0.0219493
throughput change = 0.00033389
Class 0:
Packet latency average = 65.0482
	minimum = 6
	maximum = 277
Network latency average = 63.2159
	minimum = 6
	maximum = 178
Slowest packet = 16357
Flit latency average = 63.1655
	minimum = 6
	maximum = 178
Slowest flit = 31626
Fragmentation average = 0
	minimum = 0
	maximum = 0
Injected packet rate average = 0.250402
	minimum = 0.246 (at node 1)
	maximum = 0.256 (at node 0)
Accepted packet rate average = 0.249625
	minimum = 0.244429 (at node 5)
	maximum = 0.256143 (at node 15)
Injected flit rate average = 0.250402
	minimum = 0.246 (at node 1)
	maximum = 0.256 (at node 0)
Accepted flit rate average= 0.249625
	minimum = 0.244429 (at node 5)
	maximum = 0.256143 (at node 15)
Injected packet length average = 1
Accepted packet length average = 1
Total in-flight flits = 266 (266 measured)
latency change    = 0.00806635
throughput change = 0.000166917
Draining all recorded packets ...
Draining remaining packets ...
Time taken is 10306 cycles
====== Overall Traffic Statistics ======
====== Traffic class 0 ======
Packet latency average = 65.4093 (1 samples)
	minimum = 6 (1 samples)
	maximum = 277 (1 samples)
Network latency average = 63.5319 (1 samples)
	minimum = 6 (1 samples)
	maximum = 178 (1 samples)
Flit latency average = 63.57 (1 samples)
	minimum = 6 (1 samples)
	maximum = 178 (1 samples)
Fragmentation average = 0 (1 samples)
	minimum = 0 (1 samples)
	maximum = 0 (1 samples)
Injected packet rate average = 0.250402 (1 samples)
	minimum = 0.246 (1 samples)
	maximum = 0.256 (1 samples)
Accepted packet rate average = 0.249625 (1 samples)
	minimum = 0.244429 (1 samples)
	maximum = 0.256143 (1 samples)
Injected flit rate average = 0.250402 (1 samples)
	minimum = 0.246 (1 samples)
	maximum = 0.256 (1 samples)
Accepted flit rate average = 0.249625 (1 samples)
	minimum = 0.244429 (1 samples)
	maximum = 0.256143 (1 samples)
Injected packet size average = 1 (1 samples)
Accepted packet size average = 1 (1 samples)
Hops average = 2 (1 samples)
Total run time 7.93534
