BEGIN Configuration File: ../../booksim2/src/examples/flatflyconfig
// $Id$

// Copyright (c) 2007-2015, Trustees of The Leland Stanford Junior University
// All rights reserved.
//
// Redistribution and use in source and binary forms, with or without
// modification, are permitted provided that the following conditions are met:
//
// Redistributions of source code must retain the above copyright notice, this
// list of conditions and the following disclaimer.
// Redistributions in binary form must reproduce the above copyright notice,
// this list of conditions and the following disclaimer in the documentation
// and/or other materials provided with the distribution.
//
// THIS SOFTWARE IS PROVIDED BY THE COPYRIGHT HOLDERS AND CONTRIBUTORS "AS IS"
// AND ANY EXPRESS OR IMPLIED WARRANTIES, INCLUDING, BUT NOT LIMITED TO, THE
// IMPLIED WARRANTIES OF MERCHANTABILITY AND FITNESS FOR A PARTICULAR PURPOSE
// ARE DISCLAIMED. IN NO EVENT SHALL THE COPYRIGHT OWNER OR CONTRIBUTORS BE
// LIABLE FOR ANY DIRECT, INDIRECT, INCIDENTAL, SPECIAL, EXEMPLARY, OR
// CONSEQUENTIAL DAMAGES (INCLUDING, BUT NOT LIMITED TO, PROCUREMENT OF
// SUBSTITUTE GOODS OR SERVICES; LOSS OF USE, DATA, OR PROFITS; OR BUSINESS
// INTERRUPTION) HOWEVER CAUSED AND ON ANY THEORY OF LIABILITY, WHETHER IN
// CONTRACT, STRICT LIABILITY, OR TORT (INCLUDING NEGLIGENCE OR OTHERWISE)
// ARISING IN ANY WAY OUT OF THE USE OF THIS SOFTWARE, EVEN IF ADVISED OF THE
// POSSIBILITY OF SUCH DAMAGE.

//A flattened butterfly configurate file with many tweaks from the
//default settings. 


// Flow control
// Total number of VCs must match the above assignments
num_vcs     = 2;
vc_buf_size = 16;

wait_for_tail_credit = 0;

//
// Router architectureq
//
vc_allocator = islip; 
sw_allocator = islip;
alloc_iters  = 3;

credit_delay   = 0;
routing_delay  = 1;
vc_alloc_delay = 1;
sw_alloc_delay = 1;
st_final_delay = 1;

input_speedup     = 1;
output_speedup    = 1;
internal_speedup  = 1.6;

//
// Traffic
//

warmup_periods = 3;

sample_period  = 1000;  

sim_count          = 1;

traffic       = bitrev;


// Flatfly 
//
// #node = k^(n+1)
//
// x, y, specifies the arrangement of routers in x and y dim
// xr, yr specifiies the arayment of clients in a router
//
topology = flatfly;
subnets = 1;

c  = 16;
k  = 16;
n  = 1;

x  = 16;
y  = 1;
xr = 16;
yr = 1;

use_noc_latency = 0;

//
// Routing
//

routing_function = ran_min;

//1: batch mode, 0: injection mode
use_read_write = 0;

//for injection mode
packet_size = 1;
injection_rate = 0.1;

//for batch mode
read_request_size=1;
write_request_size=1;
read_reply_size=1;
write_reply_size=1;

read_request_begin_vc  = 0;
read_request_end_vc    = 3;
write_reply_begin_vc   = 4;
write_reply_end_vc     = 7;
read_reply_begin_vc    = 4;
read_reply_end_vc      = 7;
write_request_begin_vc = 0;
write_request_end_vc   = 3;

//latency: drains all packet, throughput:no drain?
sim_type = latency;

watch_out = -;

END Configuration File: ../../booksim2/src/examples/flatflyconfig
OVERRIDE Parameter: traffic=bitcomp
OVERRIDE Parameter: injection_rate={0.025}
OVERRIDE Parameter: c=4
OVERRIDE Parameter: k=4
OVERRIDE Parameter: x=4
OVERRIDE Parameter: xr=4
OVERRIDE Parameter: sim_type=latency
 Flat Bufferfly 
 k = 4 n = 1 c = 4
 each switch - total radix =  7
 # of switches = 4
 # of channels = 12
 # of nodes ( size of network ) = 16
7 | node7 | Enqueuing flit 1 (packet 1) at time 7.
7 | traffic_manager | Finding output VC for flit 1:
7 | traffic_manager |   Selected output VC 0.
7 | node7 | Injecting flit 1 into subnet 0 at time 7 with priority 0.
8 | network_0/network_0_fchan_ingress7 | Beginning channel traversal for flit 1 with delay 1.
8 | network_0/network_0_fchan_ingress7 | Completed channel traversal for flit 1.
9 | network_0/router_1 | Received flit 1 from channel at input 3.
9 | network_0/router_1 | Adding flit 1 to VC 0 at input 3 (state: idle, empty).
9 | network_0/router_1/buf_3/vc_0 | Changing state from idle to routing.
9 | network_0/router_1 | Beginning routing for VC 0 at input 3 (front: 1).
9 | network_0/router_1 | Completed routing for VC 0 at input 3 (front: 1).
9 | network_0/router_1/buf_3/vc_0 | Changing state from routing to vc_alloc.
9 | network_0/router_1 | Beginning VC allocation for VC 0 at input 3 (front: 1).
9 | network_0/router_1 |   Requesting VC 0 at output 5 (in_pri: 0, out_pri: 0).
9 | network_0/router_1 |   Requesting VC 1 at output 5 (in_pri: 0, out_pri: 0).
9 | network_0/router_1/vc_allocator | Input requests = [ 6 -> [ 10@0 11@0 ]  ], output requests = [ 10 -> [ 6@0 ]  11 -> [ 6@0 ]  ].
9 | network_0/router_1/vc_allocator | Input grants = [ 6 -> 10  ], output grants = [ 10 -> 6  ].
9 | network_0/router_1 | Assigning VC 0 at output 5 to VC 0 at input 3.
9 | network_0/router_1 | Completed VC allocation for VC 0 at input 3 (front: 1).
9 | network_0/router_1 |   Acquiring assigned VC 0 at output 5.
9 | network_0/router_1/buf_3/vc_0 | Changing state from vc_alloc to active.
10 | network_0/router_1 | Beginning switch allocation for VC 0 at input 3 (front: 1).
10 | network_0/router_1 |   Requesting output 5.0 (non-spec, pri: 0).
10 | network_0/router_1/sw_allocator | Input requests = [ 3 -> [ 5@0 ]  ], output requests = [ 5 -> [ 3@0 ]  ].
10 | network_0/router_1/sw_allocator | Input grants = [ 3 -> 5  ], output grants = [ 5 -> 3  ].
10 | network_0/router_1 | Assigning output 5.0 to VC 0 at input 3.0.
10 | network_0/router_1 | Completed switch allocation for VC 0 at input 3 (front: 1).
10 | network_0/router_1 |   Scheduling switch connection from input 3.0 to output 5.0.
11 | network_0/router_1 | Beginning crossbar traversal for flit 1 from input 3.0 to output 5.0.
11 | network_0/router_1 | Completed crossbar traversal for flit 1 from input 3.0 to output 5.0.
11 | network_0/router_1 | Buffering flit 1 at output 5.
11 | network_0/router_1 | Sending flit 1 to channel at output 5.
12 | network_0/network_0_fchan_4 | Beginning channel traversal for flit 1 with delay 1.
12 | network_0/network_0_fchan_4 | Completed channel traversal for flit 1.
13 | network_0/router_2 | Received flit 1 from channel at input 5.
13 | network_0/router_2 | Adding flit 1 to VC 0 at input 5 (state: idle, empty).
13 | network_0/router_2/buf_5/vc_0 | Changing state from idle to routing.
13 | network_0/router_2 | Beginning routing for VC 0 at input 5 (front: 1).
13 | network_0/router_2 | Completed routing for VC 0 at input 5 (front: 1).
13 | network_0/router_2/buf_5/vc_0 | Changing state from routing to vc_alloc.
13 | network_0/router_2 | Beginning VC allocation for VC 0 at input 5 (front: 1).
13 | network_0/router_2 |   Requesting VC 0 at output 0 (in_pri: 0, out_pri: 0).
13 | network_0/router_2 |   Requesting VC 1 at output 0 (in_pri: 0, out_pri: 0).
13 | network_0/router_2/vc_allocator | Input requests = [ 10 -> [ 0@0 1@0 ]  ], output requests = [ 0 -> [ 10@0 ]  1 -> [ 10@0 ]  ].
13 | network_0/router_2/vc_allocator | Input grants = [ 10 -> 0  ], output grants = [ 0 -> 10  ].
13 | network_0/router_2 | Assigning VC 0 at output 0 to VC 0 at input 5.
13 | network_0/router_2 | Completed VC allocation for VC 0 at input 5 (front: 1).
13 | network_0/router_2 |   Acquiring assigned VC 0 at output 0.
13 | network_0/router_2/buf_5/vc_0 | Changing state from vc_alloc to active.
14 | network_0/router_2 | Beginning switch allocation for VC 0 at input 5 (front: 1).
14 | network_0/router_2 |   Requesting output 0.0 (non-spec, pri: 0).
14 | network_0/router_2/sw_allocator | Input requests = [ 5 -> [ 0@0 ]  ], output requests = [ 0 -> [ 5@0 ]  ].
14 | network_0/router_2/sw_allocator | Input grants = [ 5 -> 0  ], output grants = [ 0 -> 5  ].
14 | network_0/router_2 | Assigning output 0.0 to VC 0 at input 5.0.
14 | network_0/router_2 | Completed switch allocation for VC 0 at input 5 (front: 1).
14 | network_0/router_2 |   Scheduling switch connection from input 5.0 to output 0.0.
14 | network_0/router_2 | Beginning crossbar traversal for flit 1 from input 5.0 to output 0.0.
14 | network_0/router_2 | Completed crossbar traversal for flit 1 from input 5.0 to output 0.0.
14 | network_0/router_2 | Buffering flit 1 at output 0.
14 | network_0/router_2 | Sending flit 1 to channel at output 0.
15 | network_0/network_0_fchan_egress8 | Beginning channel traversal for flit 1 with delay 1.
15 | network_0/network_0_fchan_egress8 | Completed channel traversal for flit 1.
16 | node8 | Ejecting flit 1 (packet 1) from VC 0.
16 | node8 | Injecting credit for VC 0 into subnet 0.
16 | node8 | Retiring flit 1 (packet 1, src = 7, dest = 8, hops = 2, flat = 9).
16 | node8 | Retiring packet 1 (plat = 9, nlat = 9, frag = 0, src = 7, dest = 8).
Class 0:
Packet latency average = 9.66234
	minimum = 9
	maximum = 11
Network latency average = 9.66234
	minimum = 9
	maximum = 11
Slowest packet = 21
Flit latency average = 9.66234
	minimum = 9
	maximum = 11
Slowest flit = 21
Fragmentation average = 0
	minimum = 0
	maximum = 0
Injected packet rate average = 0.0243125
	minimum = 0.018 (at node 2)
	maximum = 0.035 (at node 12)
Accepted packet rate average = 0.0240625
	minimum = 0.016 (at node 13)
	maximum = 0.035 (at node 3)
Injected flit rate average = 0.0243125
	minimum = 0.018 (at node 2)
	maximum = 0.035 (at node 12)
Accepted flit rate average= 0.0240625
	minimum = 0.016 (at node 13)
	maximum = 0.035 (at node 3)
Injected packet length average = 1
Accepted packet length average = 1
Total in-flight flits = 4 (0 measured)
latency change    = 1
throughput change = 1
Class 0:
Packet latency average = 9.67609
	minimum = 9
	maximum = 11
Network latency average = 9.67609
	minimum = 9
	maximum = 11
Slowest packet = 21
Flit latency average = 9.67609
	minimum = 9
	maximum = 11
Slowest flit = 21
Fragmentation average = 0
	minimum = 0
	maximum = 0
Injected packet rate average = 0.0244063
	minimum = 0.02 (at node 11)
	maximum = 0.0325 (at node 12)
Accepted packet rate average = 0.0243125
	minimum = 0.0195 (at node 4)
	maximum = 0.032 (at node 3)
Injected flit rate average = 0.0244063
	minimum = 0.02 (at node 11)
	maximum = 0.0325 (at node 12)
Accepted flit rate average= 0.0243125
	minimum = 0.0195 (at node 4)
	maximum = 0.032 (at node 3)
Injected packet length average = 1
Accepted packet length average = 1
Total in-flight flits = 3 (0 measured)
latency change    = 0.00142153
throughput change = 0.0102828
Class 0:
Packet latency average = 9.69284
	minimum = 9
	maximum = 11
Network latency average = 9.69284
	minimum = 9
	maximum = 11
Slowest packet = 789
Flit latency average = 9.69284
	minimum = 9
	maximum = 11
Slowest flit = 789
Fragmentation average = 0
	minimum = 0
	maximum = 0
Injected packet rate average = 0.027375
	minimum = 0.021 (at node 7)
	maximum = 0.033 (at node 12)
Accepted packet rate average = 0.0270625
	minimum = 0.02 (at node 8)
	maximum = 0.033 (at node 3)
Injected flit rate average = 0.027375
	minimum = 0.021 (at node 7)
	maximum = 0.033 (at node 12)
Accepted flit rate average= 0.0270625
	minimum = 0.02 (at node 8)
	maximum = 0.033 (at node 3)
Injected packet length average = 1
Accepted packet length average = 1
Total in-flight flits = 8 (0 measured)
latency change    = 0.00172788
throughput change = 0.101617
Warmed up ...Time used is 3000 cycles
Class 0:
Packet latency average = 9.70127
	minimum = 9
	maximum = 12
Network latency average = 9.70127
	minimum = 9
	maximum = 12
Slowest packet = 1220
Flit latency average = 9.69479
	minimum = 9
	maximum = 12
Slowest flit = 1220
Fragmentation average = 0
	minimum = 0
	maximum = 0
Injected packet rate average = 0.0250625
	minimum = 0.014 (at node 14)
	maximum = 0.038 (at node 10)
Accepted packet rate average = 0.0251875
	minimum = 0.014 (at node 1)
	maximum = 0.036 (at node 0)
Injected flit rate average = 0.0250625
	minimum = 0.014 (at node 14)
	maximum = 0.038 (at node 10)
Accepted flit rate average= 0.0251875
	minimum = 0.014 (at node 1)
	maximum = 0.036 (at node 0)
Injected packet length average = 1
Accepted packet length average = 1
Total in-flight flits = 6 (6 measured)
latency change    = 0.000868462
throughput change = 0.0744417
Class 0:
Packet latency average = 9.69949
	minimum = 9
	maximum = 12
Network latency average = 9.69949
	minimum = 9
	maximum = 12
Slowest packet = 1220
Flit latency average = 9.69625
	minimum = 9
	maximum = 12
Slowest flit = 1220
Fragmentation average = 0
	minimum = 0
	maximum = 0
Injected packet rate average = 0.0248438
	minimum = 0.017 (at node 14)
	maximum = 0.033 (at node 10)
Accepted packet rate average = 0.025
	minimum = 0.017 (at node 1)
	maximum = 0.033 (at node 5)
Injected flit rate average = 0.0248438
	minimum = 0.017 (at node 14)
	maximum = 0.033 (at node 10)
Accepted flit rate average= 0.025
	minimum = 0.017 (at node 1)
	maximum = 0.033 (at node 5)
Injected packet length average = 1
Accepted packet length average = 1
Total in-flight flits = 3 (3 measured)
latency change    = 0.000182574
throughput change = 0.0075
Class 0:
Packet latency average = 9.70075
	minimum = 9
	maximum = 12
Network latency average = 9.70075
	minimum = 9
	maximum = 12
Slowest packet = 1220
Flit latency average = 9.69858
	minimum = 9
	maximum = 12
Slowest flit = 1220
Fragmentation average = 0
	minimum = 0
	maximum = 0
Injected packet rate average = 0.0249375
	minimum = 0.0183333 (at node 14)
	maximum = 0.033 (at node 15)
Accepted packet rate average = 0.0250208
	minimum = 0.018 (at node 1)
	maximum = 0.033 (at node 0)
Injected flit rate average = 0.0249375
	minimum = 0.0183333 (at node 14)
	maximum = 0.033 (at node 15)
Accepted flit rate average= 0.0250208
	minimum = 0.018 (at node 1)
	maximum = 0.033 (at node 0)
Injected packet length average = 1
Accepted packet length average = 1
Total in-flight flits = 4 (4 measured)
latency change    = 0.00012983
throughput change = 0.000832639
Class 0:
Packet latency average = 9.69641
	minimum = 9
	maximum = 12
Network latency average = 9.69641
	minimum = 9
	maximum = 12
Slowest packet = 1220
Flit latency average = 9.69482
	minimum = 9
	maximum = 12
Slowest flit = 1220
Fragmentation average = 0
	minimum = 0
	maximum = 0
Injected packet rate average = 0.0252813
	minimum = 0.02 (at node 14)
	maximum = 0.03025 (at node 15)
Accepted packet rate average = 0.0253438
	minimum = 0.02 (at node 1)
	maximum = 0.03025 (at node 0)
Injected flit rate average = 0.0252813
	minimum = 0.02 (at node 14)
	maximum = 0.03025 (at node 15)
Accepted flit rate average= 0.0253438
	minimum = 0.02 (at node 1)
	maximum = 0.03025 (at node 0)
Injected packet length average = 1
Accepted packet length average = 1
Total in-flight flits = 4 (4 measured)
latency change    = 0.000448409
throughput change = 0.0127415
Draining all recorded packets ...
Draining remaining packets ...
Time taken is 7021 cycles
====== Overall Traffic Statistics ======
====== Traffic class 0 ======
Packet latency average = 9.69654 (1 samples)
	minimum = 9 (1 samples)
	maximum = 12 (1 samples)
Network latency average = 9.69654 (1 samples)
	minimum = 9 (1 samples)
	maximum = 12 (1 samples)
Flit latency average = 9.69528 (1 samples)
	minimum = 9 (1 samples)
	maximum = 12 (1 samples)
Fragmentation average = 0 (1 samples)
	minimum = 0 (1 samples)
	maximum = 0 (1 samples)
Injected packet rate average = 0.0252813 (1 samples)
	minimum = 0.02 (1 samples)
	maximum = 0.03025 (1 samples)
Accepted packet rate average = 0.0253438 (1 samples)
	minimum = 0.02 (1 samples)
	maximum = 0.03025 (1 samples)
Injected flit rate average = 0.0252813 (1 samples)
	minimum = 0.02 (1 samples)
	maximum = 0.03025 (1 samples)
Accepted flit rate average = 0.0253438 (1 samples)
	minimum = 0.02 (1 samples)
	maximum = 0.03025 (1 samples)
Injected packet size average = 1 (1 samples)
Accepted packet size average = 1 (1 samples)
Hops average = 2 (1 samples)
Total run time 0.17645
