BEGIN Configuration File: ../../booksim2/src/examples/flatflyconfig
// $Id$

// Copyright (c) 2007-2015, Trustees of The Leland Stanford Junior University
// All rights reserved.
//
// Redistribution and use in source and binary forms, with or without
// modification, are permitted provided that the following conditions are met:
//
// Redistributions of source code must retain the above copyright notice, this
// list of conditions and the following disclaimer.
// Redistributions in binary form must reproduce the above copyright notice,
// this list of conditions and the following disclaimer in the documentation
// and/or other materials provided with the distribution.
//
// THIS SOFTWARE IS PROVIDED BY THE COPYRIGHT HOLDERS AND CONTRIBUTORS "AS IS"
// AND ANY EXPRESS OR IMPLIED WARRANTIES, INCLUDING, BUT NOT LIMITED TO, THE
// IMPLIED WARRANTIES OF MERCHANTABILITY AND FITNESS FOR A PARTICULAR PURPOSE
// ARE DISCLAIMED. IN NO EVENT SHALL THE COPYRIGHT OWNER OR CONTRIBUTORS BE
// LIABLE FOR ANY DIRECT, INDIRECT, INCIDENTAL, SPECIAL, EXEMPLARY, OR
// CONSEQUENTIAL DAMAGES (INCLUDING, BUT NOT LIMITED TO, PROCUREMENT OF
// SUBSTITUTE GOODS OR SERVICES; LOSS OF USE, DATA, OR PROFITS; OR BUSINESS
// INTERRUPTION) HOWEVER CAUSED AND ON ANY THEORY OF LIABILITY, WHETHER IN
// CONTRACT, STRICT LIABILITY, OR TORT (INCLUDING NEGLIGENCE OR OTHERWISE)
// ARISING IN ANY WAY OUT OF THE USE OF THIS SOFTWARE, EVEN IF ADVISED OF THE
// POSSIBILITY OF SUCH DAMAGE.

//A flattened butterfly configurate file with many tweaks from the
//default settings. 


// Flow control
// Total number of VCs must match the above assignments
num_vcs     = 2;
vc_buf_size = 16;

wait_for_tail_credit = 0;

//
// Router architectureq
//
vc_allocator = islip; 
sw_allocator = islip;
alloc_iters  = 3;

credit_delay   = 0;
routing_delay  = 1;
vc_alloc_delay = 1;
sw_alloc_delay = 1;
st_final_delay = 1;

input_speedup     = 1;
output_speedup    = 1;
internal_speedup  = 1.6;

//
// Traffic
//

warmup_periods = 3;

sample_period  = 1000;  

sim_count          = 1;

traffic       = bitrev;


// Flatfly 
//
// #node = k^(n+1)
//
// x, y, specifies the arrangement of routers in x and y dim
// xr, yr specifiies the arayment of clients in a router
//
topology = flatfly;
subnets = 1;

c  = 16;
k  = 16;
n  = 1;

x  = 16;
y  = 1;
xr = 16;
yr = 1;

use_noc_latency = 0;

//
// Routing
//

routing_function = ran_min;

//1: batch mode, 0: injection mode
use_read_write = 0;

//for injection mode
packet_size = 1;
injection_rate = 0.1;

//for batch mode
read_request_size=1;
write_request_size=1;
read_reply_size=1;
write_reply_size=1;

read_request_begin_vc  = 0;
read_request_end_vc    = 3;
write_reply_begin_vc   = 4;
write_reply_end_vc     = 7;
read_reply_begin_vc    = 4;
read_reply_end_vc      = 7;
write_request_begin_vc = 0;
write_request_end_vc   = 3;

//latency: drains all packet, throughput:no drain?
sim_type = latency;

watch_out = -;

END Configuration File: ../../booksim2/src/examples/flatflyconfig
OVERRIDE Parameter: traffic=bitcomp
OVERRIDE Parameter: injection_rate={0.425}
OVERRIDE Parameter: c=4
OVERRIDE Parameter: k=4
OVERRIDE Parameter: x=4
OVERRIDE Parameter: xr=4
OVERRIDE Parameter: sim_type=latency
 Flat Bufferfly 
 k = 4 n = 1 c = 4
 each switch - total radix =  7
 # of switches = 4
 # of channels = 12
 # of nodes ( size of network ) = 16
0 | node9 | Enqueuing flit 1 (packet 1) at time 0.
0 | traffic_manager | Finding output VC for flit 1:
0 | traffic_manager |   Selected output VC 0.
0 | node9 | Injecting flit 1 into subnet 0 at time 0 with priority 0.
1 | network_0/network_0_fchan_ingress9 | Beginning channel traversal for flit 1 with delay 1.
1 | network_0/network_0_fchan_ingress9 | Completed channel traversal for flit 1.
2 | network_0/router_2 | Received flit 1 from channel at input 1.
2 | network_0/router_2 | Adding flit 1 to VC 0 at input 1 (state: idle, empty).
2 | network_0/router_2/buf_1/vc_0 | Changing state from idle to routing.
2 | network_0/router_2 | Beginning routing for VC 0 at input 1 (front: 1).
2 | network_0/router_2 | Completed routing for VC 0 at input 1 (front: 1).
2 | network_0/router_2/buf_1/vc_0 | Changing state from routing to vc_alloc.
3 | network_0/router_2 | Beginning VC allocation for VC 0 at input 1 (front: 1).
3 | network_0/router_2 |   Requesting VC 0 at output 5 (in_pri: 0, out_pri: 0).
3 | network_0/router_2 |   Requesting VC 1 at output 5 (in_pri: 0, out_pri: 0).
3 | network_0/router_2/vc_allocator | Input requests = [ 2 -> [ 10@0 11@0 ]  6 -> [ 10@0 11@0 ]  ], output requests = [ 10 -> [ 2@0 6@0 ]  11 -> [ 2@0 6@0 ]  ].
3 | network_0/router_2/vc_allocator | Input grants = [ 2 -> 10  ], output grants = [ 10 -> 2  ].
3 | network_0/router_2 | Assigning VC 0 at output 5 to VC 0 at input 1.
3 | network_0/router_2 | Completed VC allocation for VC 0 at input 1 (front: 1).
3 | network_0/router_2 |   Acquiring assigned VC 0 at output 5.
3 | network_0/router_2/buf_1/vc_0 | Changing state from vc_alloc to active.
3 | network_0/router_2 | Beginning switch allocation for VC 0 at input 1 (front: 1).
3 | network_0/router_2 |   Requesting output 5.0 (non-spec, pri: 0).
3 | network_0/router_2/sw_allocator | Input requests = [ 1 -> [ 5@0 ]  ], output requests = [ 5 -> [ 1@0 ]  ].
3 | network_0/router_2/sw_allocator | Input grants = [ 1 -> 5  ], output grants = [ 5 -> 1  ].
3 | network_0/router_2 | Assigning output 5.0 to VC 0 at input 1.0.
3 | network_0/router_2 | Completed switch allocation for VC 0 at input 1 (front: 1).
3 | network_0/router_2 |   Scheduling switch connection from input 1.0 to output 5.0.
4 | network_0/router_2 | Beginning crossbar traversal for flit 1 from input 1.0 to output 5.0.
4 | network_0/router_2 | Completed crossbar traversal for flit 1 from input 1.0 to output 5.0.
4 | network_0/router_2 | Buffering flit 1 at output 5.
4 | network_0/router_2 | Sending flit 1 to channel at output 5.
5 | network_0/network_0_fchan_7 | Beginning channel traversal for flit 1 with delay 1.
5 | network_0/network_0_fchan_7 | Completed channel traversal for flit 1.
6 | network_0/router_1 | Received flit 1 from channel at input 5.
6 | network_0/router_1 | Adding flit 1 to VC 0 at input 5 (state: idle, empty).
6 | network_0/router_1/buf_5/vc_0 | Changing state from idle to routing.
6 | network_0/router_1 | Beginning routing for VC 0 at input 5 (front: 1).
6 | network_0/router_1 | Completed routing for VC 0 at input 5 (front: 1).
6 | network_0/router_1/buf_5/vc_0 | Changing state from routing to vc_alloc.
6 | network_0/router_1 | Beginning VC allocation for VC 0 at input 5 (front: 1).
6 | network_0/router_1 |   Requesting VC 0 at output 2 (in_pri: 0, out_pri: 0).
6 | network_0/router_1 |   Requesting VC 1 at output 2 (in_pri: 0, out_pri: 0).
6 | network_0/router_1/vc_allocator | Input requests = [ 10 -> [ 4@0 5@0 ]  ], output requests = [ 4 -> [ 10@0 ]  5 -> [ 10@0 ]  ].
6 | network_0/router_1/vc_allocator | Input grants = [ 10 -> 4  ], output grants = [ 4 -> 10  ].
6 | network_0/router_1 | Assigning VC 0 at output 2 to VC 0 at input 5.
6 | network_0/router_1 | Completed VC allocation for VC 0 at input 5 (front: 1).
6 | network_0/router_1 |   Acquiring assigned VC 0 at output 2.
6 | network_0/router_1/buf_5/vc_0 | Changing state from vc_alloc to active.
7 | network_0/router_1 | Beginning switch allocation for VC 0 at input 5 (front: 1).
7 | network_0/router_1 |   Requesting output 2.0 (non-spec, pri: 0).
7 | network_0/router_1/sw_allocator | Input requests = [ 1 -> [ 5@0 ]  5 -> [ 2@0 ]  ], output requests = [ 2 -> [ 5@0 ]  5 -> [ 1@0 ]  ].
7 | network_0/router_1/sw_allocator | Input grants = [ 1 -> 5  5 -> 2  ], output grants = [ 2 -> 5  5 -> 1  ].
7 | network_0/router_1 | Assigning output 2.0 to VC 0 at input 5.0.
7 | network_0/router_1 | Completed switch allocation for VC 0 at input 5 (front: 1).
7 | network_0/router_1 |   Scheduling switch connection from input 5.0 to output 2.0.
8 | network_0/router_1 | Beginning crossbar traversal for flit 1 from input 5.0 to output 2.0.
8 | network_0/router_1 | Completed crossbar traversal for flit 1 from input 5.0 to output 2.0.
8 | network_0/router_1 | Buffering flit 1 at output 2.
8 | network_0/router_1 | Sending flit 1 to channel at output 2.
9 | network_0/network_0_fchan_egress6 | Beginning channel traversal for flit 1 with delay 1.
9 | network_0/network_0_fchan_egress6 | Completed channel traversal for flit 1.
10 | node6 | Ejecting flit 1 (packet 1) from VC 0.
10 | node6 | Injecting credit for VC 0 into subnet 0.
10 | node6 | Retiring flit 1 (packet 1, src = 9, dest = 6, hops = 2, flat = 10).
10 | node6 | Retiring packet 1 (plat = 10, nlat = 10, frag = 0, src = 9, dest = 6).
Class 0:
Packet latency average = 208.936
	minimum = 9
	maximum = 472
Network latency average = 130.436
	minimum = 9
	maximum = 159
Slowest packet = 1056
Flit latency average = 130.436
	minimum = 9
	maximum = 159
Slowest flit = 1095
Fragmentation average = 0
	minimum = 0
	maximum = 0
Injected packet rate average = 0.287
	minimum = 0.283 (at node 0)
	maximum = 0.29 (at node 2)
Accepted packet rate average = 0.247438
	minimum = 0.243 (at node 3)
	maximum = 0.252 (at node 13)
Injected flit rate average = 0.287
	minimum = 0.283 (at node 0)
	maximum = 0.29 (at node 2)
Accepted flit rate average= 0.247438
	minimum = 0.243 (at node 3)
	maximum = 0.252 (at node 13)
Injected packet length average = 1
Accepted packet length average = 1
Total in-flight flits = 645 (0 measured)
latency change    = 1
throughput change = 1
Class 0:
Packet latency average = 415.785
	minimum = 9
	maximum = 916
Network latency average = 144.352
	minimum = 9
	maximum = 159
Slowest packet = 1056
Flit latency average = 144.352
	minimum = 9
	maximum = 159
Slowest flit = 1095
Fragmentation average = 0
	minimum = 0
	maximum = 0
Injected packet rate average = 0.2685
	minimum = 0.2665 (at node 0)
	maximum = 0.27 (at node 2)
Accepted packet rate average = 0.248719
	minimum = 0.2465 (at node 15)
	maximum = 0.251 (at node 13)
Injected flit rate average = 0.2685
	minimum = 0.2665 (at node 0)
	maximum = 0.27 (at node 2)
Accepted flit rate average= 0.248719
	minimum = 0.2465 (at node 15)
	maximum = 0.251 (at node 13)
Injected packet length average = 1
Accepted packet length average = 1
Total in-flight flits = 645 (0 measured)
latency change    = 0.497489
throughput change = 0.0051514
Class 0:
Packet latency average = 1029.61
	minimum = 741
	maximum = 1329
Network latency average = 158.125
	minimum = 157
	maximum = 159
Slowest packet = 7931
Flit latency average = 158.125
	minimum = 157
	maximum = 159
Slowest flit = 7931
Fragmentation average = 0
	minimum = 0
	maximum = 0
Injected packet rate average = 0.25
	minimum = 0.248 (at node 4)
	maximum = 0.252 (at node 6)
Accepted packet rate average = 0.25
	minimum = 0.248 (at node 3)
	maximum = 0.252 (at node 1)
Injected flit rate average = 0.25
	minimum = 0.248 (at node 4)
	maximum = 0.252 (at node 6)
Accepted flit rate average= 0.25
	minimum = 0.248 (at node 3)
	maximum = 0.252 (at node 1)
Injected packet length average = 1
Accepted packet length average = 1
Total in-flight flits = 645 (0 measured)
latency change    = 0.596173
throughput change = 0.005125
Average latency for class 0 exceeded 500 cycles. Aborting simulation.
Too many sample periods needed to converge
Simulation unstable, ending ...
Total run time 0.355984
