BEGIN Configuration File: ../../booksim2/src/examples/flatflyconfig
// $Id$

// Copyright (c) 2007-2015, Trustees of The Leland Stanford Junior University
// All rights reserved.
//
// Redistribution and use in source and binary forms, with or without
// modification, are permitted provided that the following conditions are met:
//
// Redistributions of source code must retain the above copyright notice, this
// list of conditions and the following disclaimer.
// Redistributions in binary form must reproduce the above copyright notice,
// this list of conditions and the following disclaimer in the documentation
// and/or other materials provided with the distribution.
//
// THIS SOFTWARE IS PROVIDED BY THE COPYRIGHT HOLDERS AND CONTRIBUTORS "AS IS"
// AND ANY EXPRESS OR IMPLIED WARRANTIES, INCLUDING, BUT NOT LIMITED TO, THE
// IMPLIED WARRANTIES OF MERCHANTABILITY AND FITNESS FOR A PARTICULAR PURPOSE
// ARE DISCLAIMED. IN NO EVENT SHALL THE COPYRIGHT OWNER OR CONTRIBUTORS BE
// LIABLE FOR ANY DIRECT, INDIRECT, INCIDENTAL, SPECIAL, EXEMPLARY, OR
// CONSEQUENTIAL DAMAGES (INCLUDING, BUT NOT LIMITED TO, PROCUREMENT OF
// SUBSTITUTE GOODS OR SERVICES; LOSS OF USE, DATA, OR PROFITS; OR BUSINESS
// INTERRUPTION) HOWEVER CAUSED AND ON ANY THEORY OF LIABILITY, WHETHER IN
// CONTRACT, STRICT LIABILITY, OR TORT (INCLUDING NEGLIGENCE OR OTHERWISE)
// ARISING IN ANY WAY OUT OF THE USE OF THIS SOFTWARE, EVEN IF ADVISED OF THE
// POSSIBILITY OF SUCH DAMAGE.

//A flattened butterfly configurate file with many tweaks from the
//default settings. 


// Flow control
// Total number of VCs must match the above assignments
num_vcs     = 2;
vc_buf_size = 16;

wait_for_tail_credit = 0;

//
// Router architectureq
//
vc_allocator = islip; 
sw_allocator = islip;
alloc_iters  = 3;

credit_delay   = 0;
routing_delay  = 1;
vc_alloc_delay = 1;
sw_alloc_delay = 1;
st_final_delay = 1;

input_speedup     = 1;
output_speedup    = 1;
internal_speedup  = 1.6;

//
// Traffic
//

warmup_periods = 3;

sample_period  = 1000;  

sim_count          = 1;

traffic       = bitrev;


// Flatfly 
//
// #node = k^(n+1)
//
// x, y, specifies the arrangement of routers in x and y dim
// xr, yr specifiies the arayment of clients in a router
//
topology = flatfly;
subnets = 1;

c  = 16;
k  = 16;
n  = 1;

x  = 16;
y  = 1;
xr = 16;
yr = 1;

use_noc_latency = 0;

//
// Routing
//

routing_function = ran_min;

//1: batch mode, 0: injection mode
use_read_write = 0;

//for injection mode
packet_size = 1;
injection_rate = 0.1;

//for batch mode
read_request_size=1;
write_request_size=1;
read_reply_size=1;
write_reply_size=1;

read_request_begin_vc  = 0;
read_request_end_vc    = 3;
write_reply_begin_vc   = 4;
write_reply_end_vc     = 7;
read_reply_begin_vc    = 4;
read_reply_end_vc      = 7;
write_request_begin_vc = 0;
write_request_end_vc   = 3;

//latency: drains all packet, throughput:no drain?
sim_type = latency;

watch_out = -;

END Configuration File: ../../booksim2/src/examples/flatflyconfig
OVERRIDE Parameter: traffic=bitcomp
OVERRIDE Parameter: injection_rate={0.225}
OVERRIDE Parameter: c=4
OVERRIDE Parameter: k=4
OVERRIDE Parameter: x=4
OVERRIDE Parameter: xr=4
OVERRIDE Parameter: sim_type=latency
 Flat Bufferfly 
 k = 4 n = 1 c = 4
 each switch - total radix =  7
 # of switches = 4
 # of channels = 12
 # of nodes ( size of network ) = 16
0 | node15 | Enqueuing flit 1 (packet 1) at time 0.
0 | traffic_manager | Finding output VC for flit 1:
0 | traffic_manager |   Selected output VC 0.
0 | node15 | Injecting flit 1 into subnet 0 at time 0 with priority 0.
1 | network_0/network_0_fchan_ingress15 | Beginning channel traversal for flit 1 with delay 1.
1 | network_0/network_0_fchan_ingress15 | Completed channel traversal for flit 1.
2 | network_0/router_3 | Received flit 1 from channel at input 3.
2 | network_0/router_3 | Adding flit 1 to VC 0 at input 3 (state: idle, empty).
2 | network_0/router_3/buf_3/vc_0 | Changing state from idle to routing.
2 | network_0/router_3 | Beginning routing for VC 0 at input 3 (front: 1).
2 | network_0/router_3 | Completed routing for VC 0 at input 3 (front: 1).
2 | network_0/router_3/buf_3/vc_0 | Changing state from routing to vc_alloc.
3 | network_0/router_3 | Beginning VC allocation for VC 0 at input 3 (front: 1).
3 | network_0/router_3 |   Requesting VC 0 at output 4 (in_pri: 0, out_pri: 0).
3 | network_0/router_3 |   Requesting VC 1 at output 4 (in_pri: 0, out_pri: 0).
3 | network_0/router_3/vc_allocator | Input requests = [ 2 -> [ 8@0 9@0 ]  6 -> [ 8@0 9@0 ]  ], output requests = [ 8 -> [ 2@0 6@0 ]  9 -> [ 2@0 6@0 ]  ].
3 | network_0/router_3/vc_allocator | Input grants = [ 2 -> 8  ], output grants = [ 8 -> 2  ].
3 | network_0/router_3 | VC allocation failed for VC 0 at input 3.
3 | network_0/router_3 | Completed VC allocation for VC 0 at input 3 (front: 1).
3 | network_0/router_3 |   No output VC allocated.
3 | network_0/router_3 | Beginning VC allocation for VC 0 at input 3 (front: 1).
3 | network_0/router_3 |   VC 0 at output 4 is in use by VC 0 at input 1 (front flit: 0).
3 | network_0/router_3 |   Requesting VC 1 at output 4 (in_pri: 0, out_pri: 0).
3 | network_0/router_3/vc_allocator | Input requests = [ 6 -> [ 9@0 ]  ], output requests = [ 9 -> [ 6@0 ]  ].
3 | network_0/router_3/vc_allocator | Input grants = [ 6 -> 9  ], output grants = [ 9 -> 6  ].
3 | network_0/router_3 | Assigning VC 1 at output 4 to VC 0 at input 3.
3 | network_0/router_3 | Completed VC allocation for VC 0 at input 3 (front: 1).
3 | network_0/router_3 |   Acquiring assigned VC 1 at output 4.
3 | network_0/router_3/buf_3/vc_0 | Changing state from vc_alloc to active.
4 | network_0/router_3 | Beginning switch allocation for VC 0 at input 3 (front: 1).
4 | network_0/router_3 |   Requesting output 4.0 (non-spec, pri: 0).
4 | network_0/router_3/sw_allocator | Input requests = [ 3 -> [ 4@0 ]  ], output requests = [ 4 -> [ 3@0 ]  ].
4 | network_0/router_3/sw_allocator | Input grants = [ 3 -> 4  ], output grants = [ 4 -> 3  ].
4 | network_0/router_3 | Assigning output 4.0 to VC 0 at input 3.0.
4 | network_0/router_3 | Completed switch allocation for VC 0 at input 3 (front: 1).
4 | network_0/router_3 |   Scheduling switch connection from input 3.0 to output 4.0.
4 | network_0/router_3 | Beginning crossbar traversal for flit 1 from input 3.0 to output 4.0.
4 | network_0/router_3 | Completed crossbar traversal for flit 1 from input 3.0 to output 4.0.
4 | network_0/router_3 | Buffering flit 1 at output 4.
5 | network_0/router_3 | Sending flit 1 to channel at output 4.
6 | network_0/network_0_fchan_9 | Beginning channel traversal for flit 1 with delay 1.
6 | network_0/network_0_fchan_9 | Completed channel traversal for flit 1.
7 | network_0/router_0 | Received flit 1 from channel at input 6.
7 | network_0/router_0 | Adding flit 1 to VC 1 at input 6 (state: idle, empty).
7 | network_0/router_0/buf_6/vc_1 | Changing state from idle to routing.
7 | network_0/router_0 | Beginning routing for VC 1 at input 6 (front: 1).
7 | network_0/router_0 | Completed routing for VC 1 at input 6 (front: 1).
7 | network_0/router_0/buf_6/vc_1 | Changing state from routing to vc_alloc.
8 | network_0/router_0 | Beginning VC allocation for VC 1 at input 6 (front: 1).
8 | network_0/router_0 |   Requesting VC 0 at output 0 (in_pri: 0, out_pri: 0).
8 | network_0/router_0 |   Requesting VC 1 at output 0 (in_pri: 0, out_pri: 0).
8 | network_0/router_0/vc_allocator | Input requests = [ 13 -> [ 0@0 1@0 ]  ], output requests = [ 0 -> [ 13@0 ]  1 -> [ 13@0 ]  ].
8 | network_0/router_0/vc_allocator | Input grants = [ 13 -> 0  ], output grants = [ 0 -> 13  ].
8 | network_0/router_0 | Assigning VC 0 at output 0 to VC 1 at input 6.
8 | network_0/router_0 | Completed VC allocation for VC 1 at input 6 (front: 1).
8 | network_0/router_0 |   Acquiring assigned VC 0 at output 0.
8 | network_0/router_0/buf_6/vc_1 | Changing state from vc_alloc to active.
8 | network_0/router_0 | Beginning switch allocation for VC 1 at input 6 (front: 1).
8 | network_0/router_0 |   Requesting output 0.0 (non-spec, pri: 0).
8 | network_0/router_0/sw_allocator | Input requests = [ 6 -> [ 0@0 ]  ], output requests = [ 0 -> [ 6@0 ]  ].
8 | network_0/router_0/sw_allocator | Input grants = [ 6 -> 0  ], output grants = [ 0 -> 6  ].
8 | network_0/router_0 | Assigning output 0.0 to VC 1 at input 6.0.
8 | network_0/router_0 | Completed switch allocation for VC 1 at input 6 (front: 1).
8 | network_0/router_0 |   Scheduling switch connection from input 6.0 to output 0.0.
9 | network_0/router_0 | Beginning crossbar traversal for flit 1 from input 6.0 to output 0.0.
9 | network_0/router_0 | Completed crossbar traversal for flit 1 from input 6.0 to output 0.0.
9 | network_0/router_0 | Buffering flit 1 at output 0.
9 | network_0/router_0 | Sending flit 1 to channel at output 0.
10 | network_0/network_0_fchan_egress0 | Beginning channel traversal for flit 1 with delay 1.
10 | network_0/network_0_fchan_egress0 | Completed channel traversal for flit 1.
11 | node0 | Ejecting flit 1 (packet 1) from VC 0.
11 | node0 | Injecting credit for VC 0 into subnet 0.
11 | node0 | Retiring flit 1 (packet 1, src = 15, dest = 0, hops = 2, flat = 11).
11 | node0 | Retiring packet 1 (plat = 11, nlat = 11, frag = 0, src = 15, dest = 0).
Class 0:
Packet latency average = 12.9486
	minimum = 9
	maximum = 27
Network latency average = 12.9486
	minimum = 9
	maximum = 27
Slowest packet = 2948
Flit latency average = 12.9486
	minimum = 9
	maximum = 27
Slowest flit = 2948
Fragmentation average = 0
	minimum = 0
	maximum = 0
Injected packet rate average = 0.217438
	minimum = 0.198 (at node 8)
	maximum = 0.237 (at node 0)
Accepted packet rate average = 0.215188
	minimum = 0.197 (at node 6)
	maximum = 0.233 (at node 5)
Injected flit rate average = 0.217438
	minimum = 0.198 (at node 8)
	maximum = 0.237 (at node 0)
Accepted flit rate average= 0.215188
	minimum = 0.197 (at node 6)
	maximum = 0.233 (at node 5)
Injected packet length average = 1
Accepted packet length average = 1
Total in-flight flits = 36 (0 measured)
latency change    = 1
throughput change = 1
Class 0:
Packet latency average = 12.9783
	minimum = 9
	maximum = 32
Network latency average = 12.9783
	minimum = 9
	maximum = 32
Slowest packet = 5459
Flit latency average = 12.9783
	minimum = 9
	maximum = 32
Slowest flit = 5459
Fragmentation average = 0
	minimum = 0
	maximum = 0
Injected packet rate average = 0.218562
	minimum = 0.196 (at node 7)
	maximum = 0.2335 (at node 2)
Accepted packet rate average = 0.216969
	minimum = 0.1955 (at node 8)
	maximum = 0.232 (at node 12)
Injected flit rate average = 0.218562
	minimum = 0.196 (at node 7)
	maximum = 0.2335 (at node 2)
Accepted flit rate average= 0.216969
	minimum = 0.1955 (at node 8)
	maximum = 0.232 (at node 12)
Injected packet length average = 1
Accepted packet length average = 1
Total in-flight flits = 51 (0 measured)
latency change    = 0.00228537
throughput change = 0.00820971
Class 0:
Packet latency average = 13.8514
	minimum = 9
	maximum = 27
Network latency average = 13.8514
	minimum = 9
	maximum = 27
Slowest packet = 7817
Flit latency average = 13.8514
	minimum = 9
	maximum = 27
Slowest flit = 7817
Fragmentation average = 0
	minimum = 0
	maximum = 0
Injected packet rate average = 0.22625
	minimum = 0.216 (at node 5)
	maximum = 0.248 (at node 6)
Accepted packet rate average = 0.225812
	minimum = 0.213 (at node 10)
	maximum = 0.242 (at node 5)
Injected flit rate average = 0.22625
	minimum = 0.216 (at node 5)
	maximum = 0.248 (at node 6)
Accepted flit rate average= 0.225812
	minimum = 0.213 (at node 10)
	maximum = 0.242 (at node 5)
Injected packet length average = 1
Accepted packet length average = 1
Total in-flight flits = 58 (0 measured)
latency change    = 0.0630348
throughput change = 0.0391641
Warmed up ...Time used is 3000 cycles
Class 0:
Packet latency average = 13.866
	minimum = 9
	maximum = 26
Network latency average = 13.866
	minimum = 9
	maximum = 26
Slowest packet = 11128
Flit latency average = 13.8996
	minimum = 9
	maximum = 26
Slowest flit = 11128
Fragmentation average = 0
	minimum = 0
	maximum = 0
Injected packet rate average = 0.225938
	minimum = 0.201 (at node 14)
	maximum = 0.253 (at node 15)
Accepted packet rate average = 0.226562
	minimum = 0.202 (at node 1)
	maximum = 0.254 (at node 0)
Injected flit rate average = 0.225938
	minimum = 0.201 (at node 14)
	maximum = 0.253 (at node 15)
Accepted flit rate average= 0.226562
	minimum = 0.202 (at node 1)
	maximum = 0.254 (at node 0)
Injected packet length average = 1
Accepted packet length average = 1
Total in-flight flits = 48 (48 measured)
latency change    = 0.00105465
throughput change = 0.00331034
Class 0:
Packet latency average = 13.4235
	minimum = 9
	maximum = 29
Network latency average = 13.4235
	minimum = 9
	maximum = 29
Slowest packet = 15853
Flit latency average = 13.4441
	minimum = 9
	maximum = 29
Slowest flit = 15853
Fragmentation average = 0
	minimum = 0
	maximum = 0
Injected packet rate average = 0.223656
	minimum = 0.211 (at node 14)
	maximum = 0.2375 (at node 15)
Accepted packet rate average = 0.22375
	minimum = 0.211 (at node 1)
	maximum = 0.238 (at node 0)
Injected flit rate average = 0.223656
	minimum = 0.211 (at node 14)
	maximum = 0.2375 (at node 15)
Accepted flit rate average= 0.22375
	minimum = 0.211 (at node 1)
	maximum = 0.238 (at node 0)
Injected packet length average = 1
Accepted packet length average = 1
Total in-flight flits = 55 (55 measured)
latency change    = 0.0329608
throughput change = 0.0125698
Class 0:
Packet latency average = 13.7708
	minimum = 9
	maximum = 39
Network latency average = 13.7708
	minimum = 9
	maximum = 39
Slowest packet = 18208
Flit latency average = 13.7826
	minimum = 9
	maximum = 39
Slowest flit = 18208
Fragmentation average = 0
	minimum = 0
	maximum = 0
Injected packet rate average = 0.225062
	minimum = 0.214333 (at node 14)
	maximum = 0.238667 (at node 15)
Accepted packet rate average = 0.225438
	minimum = 0.214667 (at node 1)
	maximum = 0.239667 (at node 0)
Injected flit rate average = 0.225062
	minimum = 0.214333 (at node 14)
	maximum = 0.238667 (at node 15)
Accepted flit rate average= 0.225438
	minimum = 0.214667 (at node 1)
	maximum = 0.239667 (at node 0)
Injected packet length average = 1
Accepted packet length average = 1
Total in-flight flits = 40 (40 measured)
latency change    = 0.0252161
throughput change = 0.00748544
Draining all recorded packets ...
Draining remaining packets ...
Time taken is 6028 cycles
====== Overall Traffic Statistics ======
====== Traffic class 0 ======
Packet latency average = 13.7657 (1 samples)
	minimum = 9 (1 samples)
	maximum = 39 (1 samples)
Network latency average = 13.7657 (1 samples)
	minimum = 9 (1 samples)
	maximum = 39 (1 samples)
Flit latency average = 13.7659 (1 samples)
	minimum = 9 (1 samples)
	maximum = 39 (1 samples)
Fragmentation average = 0 (1 samples)
	minimum = 0 (1 samples)
	maximum = 0 (1 samples)
Injected packet rate average = 0.225062 (1 samples)
	minimum = 0.214333 (1 samples)
	maximum = 0.238667 (1 samples)
Accepted packet rate average = 0.225438 (1 samples)
	minimum = 0.214667 (1 samples)
	maximum = 0.239667 (1 samples)
Injected flit rate average = 0.225062 (1 samples)
	minimum = 0.214333 (1 samples)
	maximum = 0.238667 (1 samples)
Accepted flit rate average = 0.225438 (1 samples)
	minimum = 0.214667 (1 samples)
	maximum = 0.239667 (1 samples)
Injected packet size average = 1 (1 samples)
Accepted packet size average = 1 (1 samples)
Hops average = 2 (1 samples)
Total run time 0.423435
