BEGIN Configuration File: ../../booksim2/src/examples/flatflyconfig
// $Id$

// Copyright (c) 2007-2015, Trustees of The Leland Stanford Junior University
// All rights reserved.
//
// Redistribution and use in source and binary forms, with or without
// modification, are permitted provided that the following conditions are met:
//
// Redistributions of source code must retain the above copyright notice, this
// list of conditions and the following disclaimer.
// Redistributions in binary form must reproduce the above copyright notice,
// this list of conditions and the following disclaimer in the documentation
// and/or other materials provided with the distribution.
//
// THIS SOFTWARE IS PROVIDED BY THE COPYRIGHT HOLDERS AND CONTRIBUTORS "AS IS"
// AND ANY EXPRESS OR IMPLIED WARRANTIES, INCLUDING, BUT NOT LIMITED TO, THE
// IMPLIED WARRANTIES OF MERCHANTABILITY AND FITNESS FOR A PARTICULAR PURPOSE
// ARE DISCLAIMED. IN NO EVENT SHALL THE COPYRIGHT OWNER OR CONTRIBUTORS BE
// LIABLE FOR ANY DIRECT, INDIRECT, INCIDENTAL, SPECIAL, EXEMPLARY, OR
// CONSEQUENTIAL DAMAGES (INCLUDING, BUT NOT LIMITED TO, PROCUREMENT OF
// SUBSTITUTE GOODS OR SERVICES; LOSS OF USE, DATA, OR PROFITS; OR BUSINESS
// INTERRUPTION) HOWEVER CAUSED AND ON ANY THEORY OF LIABILITY, WHETHER IN
// CONTRACT, STRICT LIABILITY, OR TORT (INCLUDING NEGLIGENCE OR OTHERWISE)
// ARISING IN ANY WAY OUT OF THE USE OF THIS SOFTWARE, EVEN IF ADVISED OF THE
// POSSIBILITY OF SUCH DAMAGE.

//A flattened butterfly configurate file with many tweaks from the
//default settings. 


// Flow control
// Total number of VCs must match the above assignments
num_vcs     = 2;
vc_buf_size = 16;

wait_for_tail_credit = 0;

//
// Router architectureq
//
vc_allocator = islip; 
sw_allocator = islip;
alloc_iters  = 3;

credit_delay   = 0;
routing_delay  = 1;
vc_alloc_delay = 1;
sw_alloc_delay = 1;
st_final_delay = 1;

input_speedup     = 1;
output_speedup    = 1;
internal_speedup  = 1.6;

//
// Traffic
//

warmup_periods = 3;

sample_period  = 1000;  

sim_count          = 1;

traffic       = bitrev;


// Flatfly 
//
// #node = k^(n+1)
//
// x, y, specifies the arrangement of routers in x and y dim
// xr, yr specifiies the arayment of clients in a router
//
topology = flatfly;
subnets = 1;

c  = 16;
k  = 16;
n  = 1;

x  = 16;
y  = 1;
xr = 16;
yr = 1;

use_noc_latency = 0;

//
// Routing
//

routing_function = ran_min;

//1: batch mode, 0: injection mode
use_read_write = 0;

//for injection mode
packet_size = 1;
injection_rate = 0.1;

//for batch mode
read_request_size=1;
write_request_size=1;
read_reply_size=1;
write_reply_size=1;

read_request_begin_vc  = 0;
read_request_end_vc    = 3;
write_reply_begin_vc   = 4;
write_reply_end_vc     = 7;
read_reply_begin_vc    = 4;
read_reply_end_vc      = 7;
write_request_begin_vc = 0;
write_request_end_vc   = 3;

//latency: drains all packet, throughput:no drain?
sim_type = latency;

watch_out = -;

END Configuration File: ../../booksim2/src/examples/flatflyconfig
OVERRIDE Parameter: traffic=bitcomp
OVERRIDE Parameter: injection_rate={0.1}
OVERRIDE Parameter: c=4
OVERRIDE Parameter: k=4
OVERRIDE Parameter: x=4
OVERRIDE Parameter: xr=4
OVERRIDE Parameter: sim_type=throughput
 Flat Bufferfly 
 k = 4 n = 1 c = 4
 each switch - total radix =  7
 # of switches = 4
 # of channels = 12
 # of nodes ( size of network ) = 16
2 | node2 | Enqueuing flit 1 (packet 1) at time 2.
2 | traffic_manager | Finding output VC for flit 1:
2 | traffic_manager |   Selected output VC 0.
2 | node2 | Injecting flit 1 into subnet 0 at time 2 with priority 0.
3 | network_0/network_0_fchan_ingress2 | Beginning channel traversal for flit 1 with delay 1.
3 | network_0/network_0_fchan_ingress2 | Completed channel traversal for flit 1.
4 | network_0/router_0 | Received flit 1 from channel at input 2.
4 | network_0/router_0 | Adding flit 1 to VC 0 at input 2 (state: idle, empty).
4 | network_0/router_0/buf_2/vc_0 | Changing state from idle to routing.
4 | network_0/router_0 | Beginning routing for VC 0 at input 2 (front: 1).
4 | network_0/router_0 | Completed routing for VC 0 at input 2 (front: 1).
4 | network_0/router_0/buf_2/vc_0 | Changing state from routing to vc_alloc.
4 | network_0/router_0 | Beginning VC allocation for VC 0 at input 2 (front: 1).
4 | network_0/router_0 |   Requesting VC 0 at output 6 (in_pri: 0, out_pri: 0).
4 | network_0/router_0 |   Requesting VC 1 at output 6 (in_pri: 0, out_pri: 0).
4 | network_0/router_0/vc_allocator | Input requests = [ 4 -> [ 12@0 13@0 ]  ], output requests = [ 12 -> [ 4@0 ]  13 -> [ 4@0 ]  ].
4 | network_0/router_0/vc_allocator | Input grants = [ 4 -> 12  ], output grants = [ 12 -> 4  ].
4 | network_0/router_0 | Assigning VC 0 at output 6 to VC 0 at input 2.
4 | network_0/router_0 | Completed VC allocation for VC 0 at input 2 (front: 1).
4 | network_0/router_0 |   Acquiring assigned VC 0 at output 6.
4 | network_0/router_0/buf_2/vc_0 | Changing state from vc_alloc to active.
5 | network_0/router_0 | Beginning switch allocation for VC 0 at input 2 (front: 1).
5 | network_0/router_0 |   Requesting output 6.0 (non-spec, pri: 0).
5 | network_0/router_0/sw_allocator | Input requests = [ 2 -> [ 6@0 ]  ], output requests = [ 6 -> [ 2@0 ]  ].
5 | network_0/router_0/sw_allocator | Input grants = [ 2 -> 6  ], output grants = [ 6 -> 2  ].
5 | network_0/router_0 | Assigning output 6.0 to VC 0 at input 2.0.
5 | network_0/router_0 | Completed switch allocation for VC 0 at input 2 (front: 1).
5 | network_0/router_0 |   Scheduling switch connection from input 2.0 to output 6.0.
6 | network_0/router_0 | Beginning crossbar traversal for flit 1 from input 2.0 to output 6.0.
6 | network_0/router_0 | Completed crossbar traversal for flit 1 from input 2.0 to output 6.0.
6 | network_0/router_0 | Buffering flit 1 at output 6.
6 | network_0/router_0 | Sending flit 1 to channel at output 6.
7 | network_0/network_0_fchan_2 | Beginning channel traversal for flit 1 with delay 1.
7 | network_0/network_0_fchan_2 | Completed channel traversal for flit 1.
8 | network_0/router_3 | Received flit 1 from channel at input 4.
8 | network_0/router_3 | Adding flit 1 to VC 0 at input 4 (state: idle, empty).
8 | network_0/router_3/buf_4/vc_0 | Changing state from idle to routing.
8 | network_0/router_3 | Beginning routing for VC 0 at input 4 (front: 1).
8 | network_0/router_3 | Completed routing for VC 0 at input 4 (front: 1).
8 | network_0/router_3/buf_4/vc_0 | Changing state from routing to vc_alloc.
8 | network_0/router_3 | Beginning VC allocation for VC 0 at input 4 (front: 1).
8 | network_0/router_3 |   Requesting VC 0 at output 1 (in_pri: 0, out_pri: 0).
8 | network_0/router_3 |   Requesting VC 1 at output 1 (in_pri: 0, out_pri: 0).
8 | network_0/router_3/vc_allocator | Input requests = [ 5 -> [ 9@0 ]  8 -> [ 2@0 3@0 ]  ], output requests = [ 2 -> [ 8@0 ]  3 -> [ 8@0 ]  9 -> [ 5@0 ]  ].
8 | network_0/router_3/vc_allocator | Input grants = [ 5 -> 9  8 -> 2  ], output grants = [ 2 -> 8  9 -> 5  ].
8 | network_0/router_3 | Assigning VC 0 at output 1 to VC 0 at input 4.
8 | network_0/router_3 | Completed VC allocation for VC 0 at input 4 (front: 1).
8 | network_0/router_3 |   Acquiring assigned VC 0 at output 1.
8 | network_0/router_3/buf_4/vc_0 | Changing state from vc_alloc to active.
9 | network_0/router_3 | Beginning switch allocation for VC 0 at input 4 (front: 1).
9 | network_0/router_3 |   Requesting output 1.0 (non-spec, pri: 0).
9 | network_0/router_3/sw_allocator | Input requests = [ 2 -> [ 4@0 ]  4 -> [ 1@0 ]  ], output requests = [ 1 -> [ 4@0 ]  4 -> [ 2@0 ]  ].
9 | network_0/router_3/sw_allocator | Input grants = [ 2 -> 4  4 -> 1  ], output grants = [ 1 -> 4  4 -> 2  ].
9 | network_0/router_3 | Assigning output 1.0 to VC 0 at input 4.0.
9 | network_0/router_3 | Completed switch allocation for VC 0 at input 4 (front: 1).
9 | network_0/router_3 |   Scheduling switch connection from input 4.0 to output 1.0.
9 | network_0/router_3 | Beginning crossbar traversal for flit 1 from input 4.0 to output 1.0.
9 | network_0/router_3 | Completed crossbar traversal for flit 1 from input 4.0 to output 1.0.
9 | network_0/router_3 | Buffering flit 1 at output 1.
9 | network_0/router_3 | Sending flit 1 to channel at output 1.
10 | network_0/network_0_fchan_egress13 | Beginning channel traversal for flit 1 with delay 1.
10 | network_0/network_0_fchan_egress13 | Completed channel traversal for flit 1.
11 | node13 | Ejecting flit 1 (packet 1) from VC 0.
11 | node13 | Injecting credit for VC 0 into subnet 0.
11 | node13 | Retiring flit 1 (packet 1, src = 2, dest = 13, hops = 2, flat = 9).
11 | node13 | Retiring packet 1 (plat = 9, nlat = 9, frag = 0, src = 2, dest = 13).
Class 0:
Packet latency average = 10.0369
	minimum = 9
	maximum = 14
Network latency average = 10.0369
	minimum = 9
	maximum = 14
Slowest packet = 821
Flit latency average = 10.0369
	minimum = 9
	maximum = 14
Slowest flit = 821
Fragmentation average = 0
	minimum = 0
	maximum = 0
Injected packet rate average = 0.095875
	minimum = 0.081 (at node 8)
	maximum = 0.109 (at node 10)
Accepted packet rate average = 0.0949375
	minimum = 0.081 (at node 7)
	maximum = 0.109 (at node 5)
Injected flit rate average = 0.095875
	minimum = 0.081 (at node 8)
	maximum = 0.109 (at node 10)
Accepted flit rate average= 0.0949375
	minimum = 0.081 (at node 7)
	maximum = 0.109 (at node 5)
Injected packet length average = 1
Accepted packet length average = 1
Total in-flight flits = 15 (0 measured)
latency change    = 1
throughput change = 1
Class 0:
Packet latency average = 10.0314
	minimum = 9
	maximum = 14
Network latency average = 10.0314
	minimum = 9
	maximum = 14
Slowest packet = 821
Flit latency average = 10.0314
	minimum = 9
	maximum = 14
Slowest flit = 821
Fragmentation average = 0
	minimum = 0
	maximum = 0
Injected packet rate average = 0.0950312
	minimum = 0.083 (at node 7)
	maximum = 0.102 (at node 13)
Accepted packet rate average = 0.0945
	minimum = 0.083 (at node 8)
	maximum = 0.101 (at node 2)
Injected flit rate average = 0.0950312
	minimum = 0.083 (at node 7)
	maximum = 0.102 (at node 13)
Accepted flit rate average= 0.0945
	minimum = 0.083 (at node 8)
	maximum = 0.101 (at node 2)
Injected packet length average = 1
Accepted packet length average = 1
Total in-flight flits = 17 (0 measured)
latency change    = 0.000543394
throughput change = 0.00462963
Class 0:
Packet latency average = 10.068
	minimum = 9
	maximum = 14
Network latency average = 10.068
	minimum = 9
	maximum = 14
Slowest packet = 3062
Flit latency average = 10.068
	minimum = 9
	maximum = 14
Slowest flit = 3062
Fragmentation average = 0
	minimum = 0
	maximum = 0
Injected packet rate average = 0.102813
	minimum = 0.093 (at node 0)
	maximum = 0.116 (at node 6)
Accepted packet rate average = 0.102875
	minimum = 0.091 (at node 15)
	maximum = 0.117 (at node 9)
Injected flit rate average = 0.102813
	minimum = 0.093 (at node 0)
	maximum = 0.116 (at node 6)
Accepted flit rate average= 0.102875
	minimum = 0.091 (at node 15)
	maximum = 0.117 (at node 9)
Injected packet length average = 1
Accepted packet length average = 1
Total in-flight flits = 16 (0 measured)
latency change    = 0.00363808
throughput change = 0.0814095
Warmed up ...Time used is 3000 cycles
Class 0:
Packet latency average = 10.0299
	minimum = 9
	maximum = 14
Network latency average = 10.0299
	minimum = 9
	maximum = 14
Slowest packet = 4716
Flit latency average = 10.027
	minimum = 9
	maximum = 14
Slowest flit = 4716
Fragmentation average = 0
	minimum = 0
	maximum = 0
Injected packet rate average = 0.099625
	minimum = 0.076 (at node 14)
	maximum = 0.124 (at node 15)
Accepted packet rate average = 0.099375
	minimum = 0.076 (at node 1)
	maximum = 0.124 (at node 0)
Injected flit rate average = 0.099625
	minimum = 0.076 (at node 14)
	maximum = 0.124 (at node 15)
Accepted flit rate average= 0.099375
	minimum = 0.076 (at node 1)
	maximum = 0.124 (at node 0)
Injected packet length average = 1
Accepted packet length average = 1
Total in-flight flits = 20 (20 measured)
latency change    = 0.00380698
throughput change = 0.0352201
Class 0:
Packet latency average = 10.0453
	minimum = 9
	maximum = 15
Network latency average = 10.0453
	minimum = 9
	maximum = 15
Slowest packet = 6400
Flit latency average = 10.0438
	minimum = 9
	maximum = 15
Slowest flit = 6400
Fragmentation average = 0
	minimum = 0
	maximum = 0
Injected packet rate average = 0.09925
	minimum = 0.0875 (at node 3)
	maximum = 0.119 (at node 15)
Accepted packet rate average = 0.0992187
	minimum = 0.087 (at node 1)
	maximum = 0.1185 (at node 0)
Injected flit rate average = 0.09925
	minimum = 0.0875 (at node 3)
	maximum = 0.119 (at node 15)
Accepted flit rate average= 0.0992187
	minimum = 0.087 (at node 1)
	maximum = 0.1185 (at node 0)
Injected packet length average = 1
Accepted packet length average = 1
Total in-flight flits = 17 (17 measured)
latency change    = 0.00153378
throughput change = 0.0015748
Class 0:
Packet latency average = 10.0518
	minimum = 9
	maximum = 15
Network latency average = 10.0518
	minimum = 9
	maximum = 15
Slowest packet = 6400
Flit latency average = 10.0507
	minimum = 9
	maximum = 15
Slowest flit = 6400
Fragmentation average = 0
	minimum = 0
	maximum = 0
Injected packet rate average = 0.0993542
	minimum = 0.0923333 (at node 14)
	maximum = 0.115667 (at node 15)
Accepted packet rate average = 0.0993542
	minimum = 0.0916667 (at node 1)
	maximum = 0.115667 (at node 0)
Injected flit rate average = 0.0993542
	minimum = 0.0923333 (at node 14)
	maximum = 0.115667 (at node 15)
Accepted flit rate average= 0.0993542
	minimum = 0.0916667 (at node 1)
	maximum = 0.115667 (at node 0)
Injected packet length average = 1
Accepted packet length average = 1
Total in-flight flits = 16 (16 measured)
latency change    = 0.000645588
throughput change = 0.00136297
Draining remaining packets ...
Time taken is 6012 cycles
====== Overall Traffic Statistics ======
====== Traffic class 0 ======
Packet latency average = 10.0518 (1 samples)
	minimum = 9 (1 samples)
	maximum = 15 (1 samples)
Network latency average = 10.0518 (1 samples)
	minimum = 9 (1 samples)
	maximum = 15 (1 samples)
Flit latency average = 10.0508 (1 samples)
	minimum = 9 (1 samples)
	maximum = 15 (1 samples)
Fragmentation average = 0 (1 samples)
	minimum = 0 (1 samples)
	maximum = 0 (1 samples)
Injected packet rate average = 0.0993542 (1 samples)
	minimum = 0.0923333 (1 samples)
	maximum = 0.115667 (1 samples)
Accepted packet rate average = 0.0993542 (1 samples)
	minimum = 0.0916667 (1 samples)
	maximum = 0.115667 (1 samples)
Injected flit rate average = 0.0993542 (1 samples)
	minimum = 0.0923333 (1 samples)
	maximum = 0.115667 (1 samples)
Accepted flit rate average = 0.0993542 (1 samples)
	minimum = 0.0916667 (1 samples)
	maximum = 0.115667 (1 samples)
Injected packet size average = 1 (1 samples)
Accepted packet size average = 1 (1 samples)
Hops average = 2 (1 samples)
Total run time 1.08363
