BEGIN Configuration File: ../../booksim2/src/examples/flatflyconfig
// $Id$

// Copyright (c) 2007-2015, Trustees of The Leland Stanford Junior University
// All rights reserved.
//
// Redistribution and use in source and binary forms, with or without
// modification, are permitted provided that the following conditions are met:
//
// Redistributions of source code must retain the above copyright notice, this
// list of conditions and the following disclaimer.
// Redistributions in binary form must reproduce the above copyright notice,
// this list of conditions and the following disclaimer in the documentation
// and/or other materials provided with the distribution.
//
// THIS SOFTWARE IS PROVIDED BY THE COPYRIGHT HOLDERS AND CONTRIBUTORS "AS IS"
// AND ANY EXPRESS OR IMPLIED WARRANTIES, INCLUDING, BUT NOT LIMITED TO, THE
// IMPLIED WARRANTIES OF MERCHANTABILITY AND FITNESS FOR A PARTICULAR PURPOSE
// ARE DISCLAIMED. IN NO EVENT SHALL THE COPYRIGHT OWNER OR CONTRIBUTORS BE
// LIABLE FOR ANY DIRECT, INDIRECT, INCIDENTAL, SPECIAL, EXEMPLARY, OR
// CONSEQUENTIAL DAMAGES (INCLUDING, BUT NOT LIMITED TO, PROCUREMENT OF
// SUBSTITUTE GOODS OR SERVICES; LOSS OF USE, DATA, OR PROFITS; OR BUSINESS
// INTERRUPTION) HOWEVER CAUSED AND ON ANY THEORY OF LIABILITY, WHETHER IN
// CONTRACT, STRICT LIABILITY, OR TORT (INCLUDING NEGLIGENCE OR OTHERWISE)
// ARISING IN ANY WAY OUT OF THE USE OF THIS SOFTWARE, EVEN IF ADVISED OF THE
// POSSIBILITY OF SUCH DAMAGE.

//A flattened butterfly configurate file with many tweaks from the
//default settings. 


// Flow control
// Total number of VCs must match the above assignments
num_vcs     = 2;
vc_buf_size = 16;

wait_for_tail_credit = 0;

//
// Router architectureq
//
vc_allocator = islip; 
sw_allocator = islip;
alloc_iters  = 3;

credit_delay   = 0;
routing_delay  = 1;
vc_alloc_delay = 1;
sw_alloc_delay = 1;
st_final_delay = 1;

input_speedup     = 1;
output_speedup    = 1;
internal_speedup  = 1.6;

//
// Traffic
//

warmup_periods = 3;

sample_period  = 1000;  

sim_count          = 1;

traffic       = bitrev;


// Flatfly 
//
// #node = k^(n+1)
//
// x, y, specifies the arrangement of routers in x and y dim
// xr, yr specifiies the arayment of clients in a router
//
topology = flatfly;
subnets = 1;

c  = 16;
k  = 16;
n  = 1;

x  = 16;
y  = 1;
xr = 16;
yr = 1;

use_noc_latency = 0;

//
// Routing
//

routing_function = ran_min;

//1: batch mode, 0: injection mode
use_read_write = 0;

//for injection mode
packet_size = 1;
injection_rate = 0.1;

//for batch mode
read_request_size=1;
write_request_size=1;
read_reply_size=1;
write_reply_size=1;

read_request_begin_vc  = 0;
read_request_end_vc    = 3;
write_reply_begin_vc   = 4;
write_reply_end_vc     = 7;
read_reply_begin_vc    = 4;
read_reply_end_vc      = 7;
write_request_begin_vc = 0;
write_request_end_vc   = 3;

//latency: drains all packet, throughput:no drain?
sim_type = latency;

watch_out = -;;END Configuration File: ../../booksim2/src/examples/flatflyconfig
OVERRIDE Parameter: traffic=bitcomp
OVERRIDE Parameter: routing_function=ugal
OVERRIDE Parameter: injection_rate={0.025}
OVERRIDE Parameter: c=16
OVERRIDE Parameter: k=16
OVERRIDE Parameter: x=16
OVERRIDE Parameter: xr=16
OVERRIDE Parameter: sim_type=latency
OVERRIDE Parameter: seed=1
 Flat Bufferfly 
 k = 16 n = 1 c = 16
 each switch - total radix =  31
 # of switches = 16
 # of channels = 240
 # of nodes ( size of network ) = 256
0 | node171 | Enqueuing flit 1 (packet 1) at time 0.
0 | traffic_manager | Finding output VC for flit 1:
0 | traffic_manager |   Selected output VC 0.
0 | node171 | Injecting flit 1 into subnet 0 at time 0 with priority 0.
1 | network_0/network_0_fchan_ingress171 | Beginning channel traversal for flit 1 with delay 1.
1 | network_0/network_0_fchan_ingress171 | Completed channel traversal for flit 1.
2 | network_0/router_10 | Received flit 1 from channel at input 11.
2 | network_0/router_10 | Adding flit 1 to VC 0 at input 11 (state: idle, empty).
2 | network_0/router_10/buf_11/vc_0 | Changing state from idle to routing.
2 | network_0/router_10 | Beginning routing for VC 0 at input 11 (front: 1).
2 | network_0/router_10 | Completed routing for VC 0 at input 11 (front: 1).
2 | network_0/router_10 |  MIN tmp_out_port: 212 | network_0/router_10 |  NONMIN tmp_out_port: 18
2 | network_0/router_10/buf_11/vc_0 | Changing state from routing to vc_alloc.
3 | network_0/router_10 | Beginning VC allocation for VC 0 at input 11 (front: 1).
3 | network_0/router_10 |   Requesting VC 1 at output 21 (in_pri: 0, out_pri: 0).
3 | network_0/router_10/vc_allocator | Input requests = [ 22 -> [ 43@0 ]  ], output requests = [ 43 -> [ 22@0 ]  ].
3 | network_0/router_10/vc_allocator | Input grants = [ 22 -> 43  ], output grants = [ 43 -> 22  ].
3 | network_0/router_10 | Assigning VC 1 at output 21 to VC 0 at input 11.
3 | network_0/router_10 | Completed VC allocation for VC 0 at input 11 (front: 1).
3 | network_0/router_10 |   Acquiring assigned VC 1 at output 21.
3 | network_0/router_10/buf_11/vc_0 | Changing state from vc_alloc to active.
3 | network_0/router_10 | Beginning switch allocation for VC 0 at input 11 (front: 1).
3 | network_0/router_10 |   Requesting output 21.0 (non-spec, pri: 0).
3 | network_0/router_10/sw_allocator | Input requests = [ 11 -> [ 21@0 ]  ], output requests = [ 21 -> [ 11@0 ]  ].
3 | network_0/router_10/sw_allocator | Input grants = [ 11 -> 21  ], output grants = [ 21 -> 11  ].
3 | network_0/router_10 | Assigning output 21.0 to VC 0 at input 11.0.
3 | network_0/router_10 | Completed switch allocation for VC 0 at input 11 (front: 1).
3 | network_0/router_10 |   Scheduling switch connection from input 11.0 to output 21.0.
4 | network_0/router_10 | Beginning crossbar traversal for flit 1 from input 11.0 to output 21.0.
4 | network_0/router_10 | Completed crossbar traversal for flit 1 from input 11.0 to output 21.0.
4 | network_0/router_10 | Buffering flit 1 at output 21.
4 | network_0/router_10 | Sending flit 1 to channel at output 21.
5 | network_0/network_0_fchan_155 | Beginning channel traversal for flit 1 with delay 1.
5 | network_0/network_0_fchan_155 | Completed channel traversal for flit 1.
6 | network_0/router_5 | Received flit 1 from channel at input 25.
6 | network_0/router_5 | Adding flit 1 to VC 1 at input 25 (state: idle, empty).
6 | network_0/router_5/buf_25/vc_1 | Changing state from idle to routing.
6 | network_0/router_5 | Beginning routing for VC 1 at input 25 (front: 1).
6 | network_0/router_5 | Completed routing for VC 1 at input 25 (front: 1).
6 | network_0/router_5/buf_25/vc_1 | Changing state from routing to vc_alloc.
6 | network_0/router_5 | Beginning VC allocation for VC 1 at input 25 (front: 1).
6 | network_0/router_5 |   Requesting VC 0 at output 4 (in_pri: 0, out_pri: 0).
6 | network_0/router_5 |   Requesting VC 1 at output 4 (in_pri: 0, out_pri: 0).
6 | network_0/router_5/vc_allocator | Input requests = [ 24 -> [ 52@0 ]  51 -> [ 8@0 9@0 ]  ], output requests = [ 8 -> [ 51@0 ]  9 -> [ 51@0 ]  52 -> [ 24@0 ]  ].
6 | network_0/router_5/vc_allocator | Input grants = [ 24 -> 52  51 -> 8  ], output grants = [ 8 -> 51  52 -> 24  ].
6 | network_0/router_5 | Assigning VC 0 at output 4 to VC 1 at input 25.
6 | network_0/router_5 | Completed VC allocation for VC 1 at input 25 (front: 1).
6 | network_0/router_5 |   Acquiring assigned VC 0 at output 4.
6 | network_0/router_5/buf_25/vc_1 | Changing state from vc_alloc to active.
7 | network_0/router_5 | Beginning switch allocation for VC 1 at input 25 (front: 1).
7 | network_0/router_5 |   Requesting output 4.0 (non-spec, pri: 0).
7 | network_0/router_5/sw_allocator | Input requests = [ 12 -> [ 26@0 ]  25 -> [ 4@0 ]  ], output requests = [ 4 -> [ 25@0 ]  26 -> [ 12@0 ]  ].
7 | network_0/router_5/sw_allocator | Input grants = [ 12 -> 26  25 -> 4  ], output grants = [ 4 -> 25  26 -> 12  ].
7 | network_0/router_5 | Assigning output 4.0 to VC 1 at input 25.0.
7 | network_0/router_5 | Completed switch allocation for VC 1 at input 25 (front: 1).
7 | network_0/router_5 |   Scheduling switch connection from input 25.0 to output 4.0.
8 | network_0/router_5 | Beginning crossbar traversal for flit 1 from input 25.0 to output 4.0.
8 | network_0/router_5 | Completed crossbar traversal for flit 1 from input 25.0 to output 4.0.
8 | network_0/router_5 | Buffering flit 1 at output 4.
8 | network_0/router_5 | Sending flit 1 to channel at output 4.
9 | network_0/network_0_fchan_egress84 | Beginning channel traversal for flit 1 with delay 1.
9 | network_0/network_0_fchan_egress84 | Completed channel traversal for flit 1.
10 | node84 | Ejecting flit 1 (packet 1) from VC 0.
10 | node84 | Injecting credit for VC 0 into subnet 0.
10 | node84 | Retiring flit 1 (packet 1, src = 171, dest = 84, hops = 2, flat = 10).
10 | node84 | Retiring packet 1 (plat = 10, nlat = 10, frag = 0, src = 171, dest = 84).
Class 0:
Packet latency average = 11.8597
	minimum = 9
	maximum = 23
Network latency average = 11.8597
	minimum = 9
	maximum = 23
Slowest packet = 985
Flit latency average = 11.8597
	minimum = 9
	maximum = 23
Slowest flit = 985
Fragmentation average = 0
	minimum = 0
	maximum = 0
Injected packet rate average = 0.0248047
	minimum = 0.012 (at node 164)
	maximum = 0.039 (at node 212)
Accepted packet rate average = 0.0244688
	minimum = 0.012 (at node 91)
	maximum = 0.038 (at node 43)
Injected flit rate average = 0.0248047
	minimum = 0.012 (at node 164)
	maximum = 0.039 (at node 212)
Accepted flit rate average= 0.0244688
	minimum = 0.012 (at node 91)
	maximum = 0.038 (at node 43)
Injected packet length average = 1
Accepted packet length average = 1
Total in-flight flits = 86 (0 measured)
latency change    = 1
throughput change = 1
Class 0:
Packet latency average = 11.8807
	minimum = 9
	maximum = 23
Network latency average = 11.8807
	minimum = 9
	maximum = 23
Slowest packet = 985
Flit latency average = 11.8807
	minimum = 9
	maximum = 23
Slowest flit = 985
Fragmentation average = 0
	minimum = 0
	maximum = 0
Injected packet rate average = 0.0250742
	minimum = 0.015 (at node 214)
	maximum = 0.0335 (at node 41)
Accepted packet rate average = 0.0249199
	minimum = 0.0145 (at node 41)
	maximum = 0.0335 (at node 214)
Injected flit rate average = 0.0250742
	minimum = 0.015 (at node 214)
	maximum = 0.0335 (at node 41)
Accepted flit rate average= 0.0249199
	minimum = 0.0145 (at node 41)
	maximum = 0.0335 (at node 214)
Injected packet length average = 1
Accepted packet length average = 1
Total in-flight flits = 79 (0 measured)
latency change    = 0.00177071
throughput change = 0.0181049
Class 0:
Packet latency average = 11.8867
	minimum = 9
	maximum = 20
Network latency average = 11.8867
	minimum = 9
	maximum = 20
Slowest packet = 17362
Flit latency average = 11.8867
	minimum = 9
	maximum = 20
Slowest flit = 17362
Fragmentation average = 0
	minimum = 0
	maximum = 0
Injected packet rate average = 0.0249492
	minimum = 0.013 (at node 73)
	maximum = 0.039 (at node 142)
Accepted packet rate average = 0.0249336
	minimum = 0.013 (at node 182)
	maximum = 0.039 (at node 113)
Injected flit rate average = 0.0249492
	minimum = 0.013 (at node 73)
	maximum = 0.039 (at node 142)
Accepted flit rate average= 0.0249336
	minimum = 0.013 (at node 182)
	maximum = 0.039 (at node 113)
Injected packet length average = 1
Accepted packet length average = 1
Total in-flight flits = 83 (0 measured)
latency change    = 0.00050634
throughput change = 0.000548332
Warmed up ...Time used is 3000 cycles
Class 0:
Packet latency average = 11.8592
	minimum = 9
	maximum = 18
Network latency average = 11.8592
	minimum = 9
	maximum = 18
Slowest packet = 20396
Flit latency average = 11.8635
	minimum = 9
	maximum = 18
Slowest flit = 20396
Fragmentation average = 0
	minimum = 0
	maximum = 0
Injected packet rate average = 0.0249961
	minimum = 0.013 (at node 46)
	maximum = 0.039 (at node 245)
Accepted packet rate average = 0.0249609
	minimum = 0.013 (at node 209)
	maximum = 0.04 (at node 10)
Injected flit rate average = 0.0249961
	minimum = 0.013 (at node 46)
	maximum = 0.039 (at node 245)
Accepted flit rate average= 0.0249609
	minimum = 0.013 (at node 209)
	maximum = 0.04 (at node 10)
Injected packet length average = 1
Accepted packet length average = 1
Total in-flight flits = 92 (92 measured)
latency change    = 0.00232109
throughput change = 0.00109546
Class 0:
Packet latency average = 11.868
	minimum = 9
	maximum = 18
Network latency average = 11.868
	minimum = 9
	maximum = 18
Slowest packet = 20396
Flit latency average = 11.8701
	minimum = 9
	maximum = 18
Slowest flit = 20396
Fragmentation average = 0
	minimum = 0
	maximum = 0
Injected packet rate average = 0.0249902
	minimum = 0.0165 (at node 46)
	maximum = 0.035 (at node 87)
Accepted packet rate average = 0.0250059
	minimum = 0.0165 (at node 209)
	maximum = 0.0345 (at node 168)
Injected flit rate average = 0.0249902
	minimum = 0.0165 (at node 46)
	maximum = 0.035 (at node 87)
Accepted flit rate average= 0.0250059
	minimum = 0.0165 (at node 209)
	maximum = 0.0345 (at node 168)
Injected packet length average = 1
Accepted packet length average = 1
Total in-flight flits = 75 (75 measured)
latency change    = 0.000741412
throughput change = 0.00179645
Class 0:
Packet latency average = 11.8691
	minimum = 9
	maximum = 20
Network latency average = 11.8691
	minimum = 9
	maximum = 20
Slowest packet = 37480
Flit latency average = 11.8705
	minimum = 9
	maximum = 20
Slowest flit = 37480
Fragmentation average = 0
	minimum = 0
	maximum = 0
Injected packet rate average = 0.0249531
	minimum = 0.0183333 (at node 149)
	maximum = 0.0323333 (at node 34)
Accepted packet rate average = 0.0249492
	minimum = 0.018 (at node 106)
	maximum = 0.0326667 (at node 221)
Injected flit rate average = 0.0249531
	minimum = 0.0183333 (at node 149)
	maximum = 0.0323333 (at node 34)
Accepted flit rate average= 0.0249492
	minimum = 0.018 (at node 106)
	maximum = 0.0326667 (at node 221)
Injected packet length average = 1
Accepted packet length average = 1
Total in-flight flits = 86 (86 measured)
latency change    = 8.93667e-05
throughput change = 0.00227024
Draining all recorded packets ...
Draining remaining packets ...
Time taken is 6032 cycles
====== Overall Traffic Statistics ======
====== Traffic class 0 ======
Packet latency average = 11.8706 (1 samples)
	minimum = 9 (1 samples)
	maximum = 20 (1 samples)
Network latency average = 11.8706 (1 samples)
	minimum = 9 (1 samples)
	maximum = 20 (1 samples)
Flit latency average = 11.8727 (1 samples)
	minimum = 9 (1 samples)
	maximum = 20 (1 samples)
Fragmentation average = 0 (1 samples)
	minimum = 0 (1 samples)
	maximum = 0 (1 samples)
Injected packet rate average = 0.0249531 (1 samples)
	minimum = 0.0183333 (1 samples)
	maximum = 0.0323333 (1 samples)
Accepted packet rate average = 0.0249492 (1 samples)
	minimum = 0.018 (1 samples)
	maximum = 0.0326667 (1 samples)
Injected flit rate average = 0.0249531 (1 samples)
	minimum = 0.0183333 (1 samples)
	maximum = 0.0323333 (1 samples)
Accepted flit rate average = 0.0249492 (1 samples)
	minimum = 0.018 (1 samples)
	maximum = 0.0326667 (1 samples)
Injected packet size average = 1 (1 samples)
Accepted packet size average = 1 (1 samples)
Hops average = 2.51905 (1 samples)
Total run time 3.1403
