BEGIN Configuration File: ../../booksim2/src/examples/flatflyconfig
// $Id$

// Copyright (c) 2007-2015, Trustees of The Leland Stanford Junior University
// All rights reserved.
//
// Redistribution and use in source and binary forms, with or without
// modification, are permitted provided that the following conditions are met:
//
// Redistributions of source code must retain the above copyright notice, this
// list of conditions and the following disclaimer.
// Redistributions in binary form must reproduce the above copyright notice,
// this list of conditions and the following disclaimer in the documentation
// and/or other materials provided with the distribution.
//
// THIS SOFTWARE IS PROVIDED BY THE COPYRIGHT HOLDERS AND CONTRIBUTORS "AS IS"
// AND ANY EXPRESS OR IMPLIED WARRANTIES, INCLUDING, BUT NOT LIMITED TO, THE
// IMPLIED WARRANTIES OF MERCHANTABILITY AND FITNESS FOR A PARTICULAR PURPOSE
// ARE DISCLAIMED. IN NO EVENT SHALL THE COPYRIGHT OWNER OR CONTRIBUTORS BE
// LIABLE FOR ANY DIRECT, INDIRECT, INCIDENTAL, SPECIAL, EXEMPLARY, OR
// CONSEQUENTIAL DAMAGES (INCLUDING, BUT NOT LIMITED TO, PROCUREMENT OF
// SUBSTITUTE GOODS OR SERVICES; LOSS OF USE, DATA, OR PROFITS; OR BUSINESS
// INTERRUPTION) HOWEVER CAUSED AND ON ANY THEORY OF LIABILITY, WHETHER IN
// CONTRACT, STRICT LIABILITY, OR TORT (INCLUDING NEGLIGENCE OR OTHERWISE)
// ARISING IN ANY WAY OUT OF THE USE OF THIS SOFTWARE, EVEN IF ADVISED OF THE
// POSSIBILITY OF SUCH DAMAGE.

//A flattened butterfly configurate file with many tweaks from the
//default settings. 


// Flow control
// Total number of VCs must match the above assignments
num_vcs     = 2;
vc_buf_size = 16;

wait_for_tail_credit = 0;

//
// Router architectureq
//
vc_allocator = islip; 
sw_allocator = islip;
alloc_iters  = 3;

credit_delay   = 0;
routing_delay  = 1;
vc_alloc_delay = 1;
sw_alloc_delay = 1;
st_final_delay = 1;

input_speedup     = 1;
output_speedup    = 1;
internal_speedup  = 1.6;

//
// Traffic
//

warmup_periods = 3;

sample_period  = 1000;  

sim_count          = 1;

traffic       = bitrev;


// Flatfly 
//
// #node = k^(n+1)
//
// x, y, specifies the arrangement of routers in x and y dim
// xr, yr specifiies the arayment of clients in a router
//
topology = flatfly;
subnets = 1;

c  = 16;
k  = 16;
n  = 1;

x  = 16;
y  = 1;
xr = 16;
yr = 1;

use_noc_latency = 0;

//
// Routing
//

routing_function = ran_min;

//1: batch mode, 0: injection mode
use_read_write = 0;

//for injection mode
packet_size = 1;
injection_rate = 0.1;

//for batch mode
read_request_size=1;
write_request_size=1;
read_reply_size=1;
write_reply_size=1;

read_request_begin_vc  = 0;
read_request_end_vc    = 3;
write_reply_begin_vc   = 4;
write_reply_end_vc     = 7;
read_reply_begin_vc    = 4;
read_reply_end_vc      = 7;
write_request_begin_vc = 0;
write_request_end_vc   = 3;

//latency: drains all packet, throughput:no drain?
sim_type = latency;

watch_out = -;;END Configuration File: ../../booksim2/src/examples/flatflyconfig
OVERRIDE Parameter: traffic=bitcomp
OVERRIDE Parameter: routing_function=ugal
OVERRIDE Parameter: injection_rate={0.075}
OVERRIDE Parameter: c=16
OVERRIDE Parameter: k=16
OVERRIDE Parameter: x=16
OVERRIDE Parameter: xr=16
OVERRIDE Parameter: sim_type=latency
OVERRIDE Parameter: seed=1
 Flat Bufferfly 
 k = 16 n = 1 c = 16
 each switch - total radix =  31
 # of switches = 16
 # of channels = 240
 # of nodes ( size of network ) = 256
0 | node5 | Enqueuing flit 1 (packet 1) at time 0.
0 | traffic_manager | Finding output VC for flit 1:
0 | traffic_manager |   Selected output VC 0.
0 | node5 | Injecting flit 1 into subnet 0 at time 0 with priority 0.
1 | network_0/network_0_fchan_ingress5 | Beginning channel traversal for flit 1 with delay 1.
1 | network_0/network_0_fchan_ingress5 | Completed channel traversal for flit 1.
2 | network_0/router_0 | Received flit 1 from channel at input 5.
2 | network_0/router_0 | Adding flit 1 to VC 0 at input 5 (state: idle, empty).
2 | network_0/router_0/buf_5/vc_0 | Changing state from idle to routing.
2 | network_0/router_0 | Beginning routing for VC 0 at input 5 (front: 1).
2 | network_0/router_0 | Completed routing for VC 0 at input 5 (front: 1).
2 | network_0/router_0 |  MIN tmp_out_port: 302 | network_0/router_0 |  NONMIN tmp_out_port: 18
2 | network_0/router_0/buf_5/vc_0 | Changing state from routing to vc_alloc.
2 | network_0/router_0 | Beginning VC allocation for VC 0 at input 5 (front: 1).
2 | network_0/router_0 |   Requesting VC 1 at output 30 (in_pri: 0, out_pri: 0).
2 | network_0/router_0/vc_allocator | Input requests = [ 8 -> [ 61@0 ]  10 -> [ 61@0 ]  26 -> [ 61@0 ]  ], output requests = [ 61 -> [ 8@0 10@0 26@0 ]  ].
2 | network_0/router_0/vc_allocator | Input grants = [ 8 -> 61  ], output grants = [ 61 -> 8  ].
2 | network_0/router_0 | VC allocation failed for VC 0 at input 5.
2 | network_0/router_0 | Completed VC allocation for VC 0 at input 5 (front: 1).
2 | network_0/router_0 |   No output VC allocated.
3 | network_0/router_0 | Beginning VC allocation for VC 0 at input 5 (front: 1).
3 | network_0/router_0 |   Requesting VC 1 at output 30 (in_pri: 0, out_pri: 0).
3 | network_0/router_0/vc_allocator | Input requests = [ 9 -> [ 44@0 ]  10 -> [ 61@0 ]  26 -> [ 61@0 ]  ], output requests = [ 44 -> [ 9@0 ]  61 -> [ 10@0 26@0 ]  ].
3 | network_0/router_0/vc_allocator | Input grants = [ 9 -> 44  10 -> 61  ], output grants = [ 44 -> 9  61 -> 10  ].
3 | network_0/router_0 | Assigning VC 1 at output 30 to VC 0 at input 5.
3 | network_0/router_0 | Completed VC allocation for VC 0 at input 5 (front: 1).
3 | network_0/router_0 |   Acquiring assigned VC 1 at output 30.
3 | network_0/router_0/buf_5/vc_0 | Changing state from vc_alloc to active.
3 | network_0/router_0 | Beginning switch allocation for VC 0 at input 5 (front: 1).
3 | network_0/router_0 |   Requesting output 30.0 (non-spec, pri: 0).
3 | network_0/router_0/sw_allocator | Input requests = [ 4 -> [ 22@0 ]  5 -> [ 30@0 ]  ], output requests = [ 22 -> [ 4@0 ]  30 -> [ 5@0 ]  ].
3 | network_0/router_0/sw_allocator | Input grants = [ 4 -> 22  5 -> 30  ], output grants = [ 22 -> 4  30 -> 5  ].
3 | network_0/router_0 | Assigning output 30.0 to VC 0 at input 5.0.
3 | network_0/router_0 | Completed switch allocation for VC 0 at input 5 (front: 1).
3 | network_0/router_0 |   Scheduling switch connection from input 5.0 to output 30.0.
3 | network_0/router_0 | Beginning crossbar traversal for flit 1 from input 5.0 to output 30.0.
3 | network_0/router_0 | Completed crossbar traversal for flit 1 from input 5.0 to output 30.0.
3 | network_0/router_0 | Buffering flit 1 at output 30.
3 | network_0/router_0 | Sending flit 1 to channel at output 30.
4 | network_0/network_0_fchan_14 | Beginning channel traversal for flit 1 with delay 1.
4 | network_0/network_0_fchan_14 | Completed channel traversal for flit 1.
5 | network_0/router_15 | Received flit 1 from channel at input 16.
5 | network_0/router_15 | Adding flit 1 to VC 1 at input 16 (state: idle, empty).
5 | network_0/router_15/buf_16/vc_1 | Changing state from idle to routing.
5 | network_0/router_15 | Beginning routing for VC 1 at input 16 (front: 1).
5 | network_0/router_15 | Completed routing for VC 1 at input 16 (front: 1).
5 | network_0/router_15/buf_16/vc_1 | Changing state from routing to vc_alloc.
5 | network_0/router_15 | Beginning VC allocation for VC 1 at input 16 (front: 1).
5 | network_0/router_15 |   Requesting VC 0 at output 10 (in_pri: 0, out_pri: 0).
5 | network_0/router_15 |   Requesting VC 1 at output 10 (in_pri: 0, out_pri: 0).
5 | network_0/router_15/vc_allocator | Input requests = [ 18 -> [ 56@0 ]  33 -> [ 20@0 21@0 ]  58 -> [ 37@0 ]  ], output requests = [ 20 -> [ 33@0 ]  21 -> [ 33@0 ]  37 -> [ 58@0 ]  56 -> [ 18@0 ]  ].
5 | network_0/router_15/vc_allocator | Input grants = [ 18 -> 56  33 -> 20  58 -> 37  ], output grants = [ 20 -> 33  37 -> 58  56 -> 18  ].
5 | network_0/router_15 | Assigning VC 0 at output 10 to VC 1 at input 16.
5 | network_0/router_15 | Completed VC allocation for VC 1 at input 16 (front: 1).
5 | network_0/router_15 |   Acquiring assigned VC 0 at output 10.
5 | network_0/router_15/buf_16/vc_1 | Changing state from vc_alloc to active.
5 | network_0/router_15 | Beginning switch allocation for VC 1 at input 16 (front: 1).
5 | network_0/router_15 |   Requesting output 10.0 (non-spec, pri: 0).
5 | network_0/router_15/sw_allocator | Input requests = [ 9 -> [ 28@0 ]  16 -> [ 10@0 ]  29 -> [ 18@0 ]  ], output requests = [ 10 -> [ 16@0 ]  18 -> [ 29@0 ]  28 -> [ 9@0 ]  ].
5 | network_0/router_15/sw_allocator | Input grants = [ 9 -> 28  16 -> 10  29 -> 18  ], output grants = [ 10 -> 16  18 -> 29  28 -> 9  ].
5 | network_0/router_15 | Assigning output 10.0 to VC 1 at input 16.0.
5 | network_0/router_15 | Completed switch allocation for VC 1 at input 16 (front: 1).
5 | network_0/router_15 |   Scheduling switch connection from input 16.0 to output 10.0.
5 | network_0/router_15 | Beginning crossbar traversal for flit 1 from input 16.0 to output 10.0.
5 | network_0/router_15 | Completed crossbar traversal for flit 1 from input 16.0 to output 10.0.
5 | network_0/router_15 | Buffering flit 1 at output 10.
5 | network_0/router_15 | Sending flit 1 to channel at output 10.
6 | network_0/network_0_fchan_egress250 | Beginning channel traversal for flit 1 with delay 1.
6 | network_0/network_0_fchan_egress250 | Completed channel traversal for flit 1.
7 | node250 | Ejecting flit 1 (packet 1) from VC 0.
7 | node250 | Injecting credit for VC 0 into subnet 0.
7 | node250 | Retiring flit 1 (packet 1, src = 5, dest = 250, hops = 2, flat = 7).
7 | node250 | Retiring packet 1 (plat = 7, nlat = 7, frag = 0, src = 5, dest = 250).
Class 0:
Packet latency average = 7.44824
	minimum = 6
	maximum = 13
Network latency average = 7.44824
	minimum = 6
	maximum = 13
Slowest packet = 4130
Flit latency average = 7.44824
	minimum = 6
	maximum = 13
Slowest flit = 4130
Fragmentation average = 0
	minimum = 0
	maximum = 0
Injected packet rate average = 0.0749688
	minimum = 0.051 (at node 208)
	maximum = 0.099 (at node 68)
Accepted packet rate average = 0.0743789
	minimum = 0.05 (at node 47)
	maximum = 0.099 (at node 187)
Injected flit rate average = 0.0749688
	minimum = 0.051 (at node 208)
	maximum = 0.099 (at node 68)
Accepted flit rate average= 0.0743789
	minimum = 0.05 (at node 47)
	maximum = 0.099 (at node 187)
Injected packet length average = 1
Accepted packet length average = 1
Total in-flight flits = 151 (0 measured)
latency change    = 1
throughput change = 1
Class 0:
Packet latency average = 7.44985
	minimum = 6
	maximum = 13
Network latency average = 7.44985
	minimum = 6
	maximum = 13
Slowest packet = 4130
Flit latency average = 7.44985
	minimum = 6
	maximum = 13
Slowest flit = 4130
Fragmentation average = 0
	minimum = 0
	maximum = 0
Injected packet rate average = 0.0753633
	minimum = 0.0605 (at node 117)
	maximum = 0.0905 (at node 68)
Accepted packet rate average = 0.075082
	minimum = 0.0605 (at node 138)
	maximum = 0.09 (at node 187)
Injected flit rate average = 0.0753633
	minimum = 0.0605 (at node 117)
	maximum = 0.0905 (at node 68)
Accepted flit rate average= 0.075082
	minimum = 0.0605 (at node 138)
	maximum = 0.09 (at node 187)
Injected packet length average = 1
Accepted packet length average = 1
Total in-flight flits = 144 (0 measured)
latency change    = 0.000215207
throughput change = 0.00936476
Class 0:
Packet latency average = 7.43617
	minimum = 6
	maximum = 13
Network latency average = 7.43617
	minimum = 6
	maximum = 13
Slowest packet = 46369
Flit latency average = 7.43617
	minimum = 6
	maximum = 13
Slowest flit = 46369
Fragmentation average = 0
	minimum = 0
	maximum = 0
Injected packet rate average = 0.07475
	minimum = 0.055 (at node 38)
	maximum = 0.103 (at node 112)
Accepted packet rate average = 0.0747539
	minimum = 0.055 (at node 14)
	maximum = 0.104 (at node 143)
Injected flit rate average = 0.07475
	minimum = 0.055 (at node 38)
	maximum = 0.103 (at node 112)
Accepted flit rate average= 0.0747539
	minimum = 0.055 (at node 14)
	maximum = 0.104 (at node 143)
Injected packet length average = 1
Accepted packet length average = 1
Total in-flight flits = 143 (0 measured)
latency change    = 0.00183909
throughput change = 0.0043894
Warmed up ...Time used is 3000 cycles
Class 0:
Packet latency average = 7.44564
	minimum = 6
	maximum = 11
Network latency average = 7.44564
	minimum = 6
	maximum = 11
Slowest packet = 58698
Flit latency average = 7.44602
	minimum = 6
	maximum = 11
Slowest flit = 58698
Fragmentation average = 0
	minimum = 0
	maximum = 0
Injected packet rate average = 0.075125
	minimum = 0.054 (at node 185)
	maximum = 0.102 (at node 34)
Accepted packet rate average = 0.0750469
	minimum = 0.055 (at node 70)
	maximum = 0.103 (at node 221)
Injected flit rate average = 0.075125
	minimum = 0.054 (at node 185)
	maximum = 0.102 (at node 34)
Accepted flit rate average= 0.0750469
	minimum = 0.055 (at node 70)
	maximum = 0.103 (at node 221)
Injected packet length average = 1
Accepted packet length average = 1
Total in-flight flits = 163 (163 measured)
latency change    = 0.00127242
throughput change = 0.00390381
Class 0:
Packet latency average = 7.44282
	minimum = 6
	maximum = 12
Network latency average = 7.44282
	minimum = 6
	maximum = 12
Slowest packet = 77173
Flit latency average = 7.44302
	minimum = 6
	maximum = 12
Slowest flit = 77173
Fragmentation average = 0
	minimum = 0
	maximum = 0
Injected packet rate average = 0.0751621
	minimum = 0.0605 (at node 116)
	maximum = 0.0925 (at node 87)
Accepted packet rate average = 0.0751406
	minimum = 0.06 (at node 139)
	maximum = 0.092 (at node 168)
Injected flit rate average = 0.0751621
	minimum = 0.0605 (at node 116)
	maximum = 0.0925 (at node 87)
Accepted flit rate average= 0.0751406
	minimum = 0.06 (at node 139)
	maximum = 0.092 (at node 168)
Injected packet length average = 1
Accepted packet length average = 1
Total in-flight flits = 154 (154 measured)
latency change    = 0.000378995
throughput change = 0.00124766
Class 0:
Packet latency average = 7.44413
	minimum = 6
	maximum = 12
Network latency average = 7.44413
	minimum = 6
	maximum = 12
Slowest packet = 77173
Flit latency average = 7.44426
	minimum = 6
	maximum = 12
Slowest flit = 77173
Fragmentation average = 0
	minimum = 0
	maximum = 0
Injected packet rate average = 0.0752135
	minimum = 0.0603333 (at node 22)
	maximum = 0.0893333 (at node 87)
Accepted packet rate average = 0.0752122
	minimum = 0.0603333 (at node 233)
	maximum = 0.0893333 (at node 168)
Injected flit rate average = 0.0752135
	minimum = 0.0603333 (at node 22)
	maximum = 0.0893333 (at node 87)
Accepted flit rate average= 0.0752122
	minimum = 0.0603333 (at node 233)
	maximum = 0.0893333 (at node 168)
Injected packet length average = 1
Accepted packet length average = 1
Total in-flight flits = 144 (144 measured)
latency change    = 0.000175979
throughput change = 0.000952167
Draining all recorded packets ...
Draining remaining packets ...
Time taken is 6020 cycles
====== Overall Traffic Statistics ======
====== Traffic class 0 ======
Packet latency average = 7.44441 (1 samples)
	minimum = 6 (1 samples)
	maximum = 12 (1 samples)
Network latency average = 7.44441 (1 samples)
	minimum = 6 (1 samples)
	maximum = 12 (1 samples)
Flit latency average = 7.44404 (1 samples)
	minimum = 6 (1 samples)
	maximum = 12 (1 samples)
Fragmentation average = 0 (1 samples)
	minimum = 0 (1 samples)
	maximum = 0 (1 samples)
Injected packet rate average = 0.0752135 (1 samples)
	minimum = 0.0603333 (1 samples)
	maximum = 0.0893333 (1 samples)
Accepted packet rate average = 0.0752122 (1 samples)
	minimum = 0.0603333 (1 samples)
	maximum = 0.0893333 (1 samples)
Injected flit rate average = 0.0752135 (1 samples)
	minimum = 0.0603333 (1 samples)
	maximum = 0.0893333 (1 samples)
Accepted flit rate average = 0.0752122 (1 samples)
	minimum = 0.0603333 (1 samples)
	maximum = 0.0893333 (1 samples)
Injected packet size average = 1 (1 samples)
Accepted packet size average = 1 (1 samples)
Hops average = 2.59116 (1 samples)
Total run time 28.2651
