BEGIN Configuration File: ../../booksim2/src/examples/flatflyconfig
// $Id$

// Copyright (c) 2007-2015, Trustees of The Leland Stanford Junior University
// All rights reserved.
//
// Redistribution and use in source and binary forms, with or without
// modification, are permitted provided that the following conditions are met:
//
// Redistributions of source code must retain the above copyright notice, this
// list of conditions and the following disclaimer.
// Redistributions in binary form must reproduce the above copyright notice,
// this list of conditions and the following disclaimer in the documentation
// and/or other materials provided with the distribution.
//
// THIS SOFTWARE IS PROVIDED BY THE COPYRIGHT HOLDERS AND CONTRIBUTORS "AS IS"
// AND ANY EXPRESS OR IMPLIED WARRANTIES, INCLUDING, BUT NOT LIMITED TO, THE
// IMPLIED WARRANTIES OF MERCHANTABILITY AND FITNESS FOR A PARTICULAR PURPOSE
// ARE DISCLAIMED. IN NO EVENT SHALL THE COPYRIGHT OWNER OR CONTRIBUTORS BE
// LIABLE FOR ANY DIRECT, INDIRECT, INCIDENTAL, SPECIAL, EXEMPLARY, OR
// CONSEQUENTIAL DAMAGES (INCLUDING, BUT NOT LIMITED TO, PROCUREMENT OF
// SUBSTITUTE GOODS OR SERVICES; LOSS OF USE, DATA, OR PROFITS; OR BUSINESS
// INTERRUPTION) HOWEVER CAUSED AND ON ANY THEORY OF LIABILITY, WHETHER IN
// CONTRACT, STRICT LIABILITY, OR TORT (INCLUDING NEGLIGENCE OR OTHERWISE)
// ARISING IN ANY WAY OUT OF THE USE OF THIS SOFTWARE, EVEN IF ADVISED OF THE
// POSSIBILITY OF SUCH DAMAGE.

//A flattened butterfly configurate file with many tweaks from the
//default settings. 


// Flow control
// Total number of VCs must match the above assignments
num_vcs     = 2;
vc_buf_size = 16;

wait_for_tail_credit = 0;

//
// Router architectureq
//
vc_allocator = islip; 
sw_allocator = islip;
alloc_iters  = 3;

credit_delay   = 0;
routing_delay  = 1;
vc_alloc_delay = 1;
sw_alloc_delay = 1;
st_final_delay = 1;

input_speedup     = 1;
output_speedup    = 1;
internal_speedup  = 1.6;

//
// Traffic
//

warmup_periods = 3;

sample_period  = 1000;  

sim_count          = 1;

traffic       = bitrev;


// Flatfly 
//
// #node = k^(n+1)
//
// x, y, specifies the arrangement of routers in x and y dim
// xr, yr specifiies the arayment of clients in a router
//
topology = flatfly;
subnets = 1;

c  = 16;
k  = 16;
n  = 1;

x  = 16;
y  = 1;
xr = 16;
yr = 1;

use_noc_latency = 0;

//
// Routing
//

routing_function = ran_min;

//1: batch mode, 0: injection mode
use_read_write = 0;

//for injection mode
packet_size = 1;
injection_rate = 0.1;

//for batch mode
read_request_size=1;
write_request_size=1;
read_reply_size=1;
write_reply_size=1;

read_request_begin_vc  = 0;
read_request_end_vc    = 3;
write_reply_begin_vc   = 4;
write_reply_end_vc     = 7;
read_reply_begin_vc    = 4;
read_reply_end_vc      = 7;
write_request_begin_vc = 0;
write_request_end_vc   = 3;

//latency: drains all packet, throughput:no drain?
sim_type = latency;

watch_out = -;;END Configuration File: ../../booksim2/src/examples/flatflyconfig
OVERRIDE Parameter: traffic=bitcomp
OVERRIDE Parameter: routing_function=ugal
OVERRIDE Parameter: injection_rate={0.225}
OVERRIDE Parameter: c=16
OVERRIDE Parameter: k=16
OVERRIDE Parameter: x=16
OVERRIDE Parameter: xr=16
OVERRIDE Parameter: sim_type=latency
OVERRIDE Parameter: seed=1
 Flat Bufferfly 
 k = 16 n = 1 c = 16
 each switch - total radix =  31
 # of switches = 16
 # of channels = 240
 # of nodes ( size of network ) = 256
0 | node4 | Enqueuing flit 1 (packet 1) at time 0.
0 | traffic_manager | Finding output VC for flit 1:
0 | traffic_manager |   Selected output VC 0.
0 | node4 | Injecting flit 1 into subnet 0 at time 0 with priority 0.
1 | network_0/network_0_fchan_ingress4 | Beginning channel traversal for flit 1 with delay 1.
1 | network_0/network_0_fchan_ingress4 | Completed channel traversal for flit 1.
2 | network_0/router_0 | Received flit 1 from channel at input 4.
2 | network_0/router_0 | Adding flit 1 to VC 0 at input 4 (state: idle, empty).
2 | network_0/router_0/buf_4/vc_0 | Changing state from idle to routing.
2 | network_0/router_0 | Beginning routing for VC 0 at input 4 (front: 1).
2 | network_0/router_0 | Completed routing for VC 0 at input 4 (front: 1).
2 | network_0/router_0 |  MIN tmp_out_port: 302 | network_0/router_0 |  NONMIN tmp_out_port: 17
2 | network_0/router_0/buf_4/vc_0 | Changing state from routing to vc_alloc.
2 | network_0/router_0 | Beginning VC allocation for VC 0 at input 4 (front: 1).
2 | network_0/router_0 |   Requesting VC 1 at output 30 (in_pri: 0, out_pri: 0).
2 | network_0/router_0/vc_allocator | Input requests = [ 2 -> [ 61@0 ]  8 -> [ 61@0 ]  10 -> [ 61@0 ]  12 -> [ 61@0 ]  20 -> [ 61@0 ]  26 -> [ 61@0 ]  ], output requests = [ 61 -> [ 2@0 8@0 10@0 12@0 20@0 26@0 ]  ].
2 | network_0/router_0/vc_allocator | Input grants = [ 2 -> 61  ], output grants = [ 61 -> 2  ].
2 | network_0/router_0 | VC allocation failed for VC 0 at input 4.
2 | network_0/router_0 | Completed VC allocation for VC 0 at input 4 (front: 1).
2 | network_0/router_0 |   No output VC allocated.
3 | network_0/router_0 | Beginning VC allocation for VC 0 at input 4 (front: 1).
3 | network_0/router_0 |   Requesting VC 1 at output 30 (in_pri: 0, out_pri: 0).
3 | network_0/router_0/vc_allocator | Input requests = [ 8 -> [ 61@0 ]  9 -> [ 54@0 ]  10 -> [ 61@0 ]  11 -> [ 61@0 ]  12 -> [ 61@0 ]  13 -> [ 32@0 ]  20 -> [ 61@0 ]  21 -> [ 56@0 ]  26 -> [ 61@0 ]  27 -> [ 56@0 ]  ], output requests = [ 32 -> [ 13@0 ]  54 -> [ 9@0 ]  56 -> [ 21@0 27@0 ]  61 -> [ 8@0 10@0 11@0 12@0 20@0 26@0 ]  ].
3 | network_0/router_0/vc_allocator | Input grants = [ 8 -> 61  9 -> 54  13 -> 32  21 -> 56  ], output grants = [ 32 -> 13  54 -> 9  56 -> 21  61 -> 8  ].
3 | network_0/router_0 | Assigning VC 1 at output 30 to VC 0 at input 4.
3 | network_0/router_0 | Completed VC allocation for VC 0 at input 4 (front: 1).
3 | network_0/router_0 |   Acquiring assigned VC 1 at output 30.
3 | network_0/router_0/buf_4/vc_0 | Changing state from vc_alloc to active.
3 | network_0/router_0 | Beginning switch allocation for VC 0 at input 4 (front: 1).
3 | network_0/router_0 |   Requesting output 30.0 (non-spec, pri: 0).
3 | network_0/router_0/sw_allocator | Input requests = [ 4 -> [ 27@0 30@0 ]  6 -> [ 16@0 ]  10 -> [ 28@0 ]  ], output requests = [ 16 -> [ 6@0 ]  27 -> [ 4@0 ]  28 -> [ 10@0 ]  30 -> [ 4@0 ]  ].
3 | network_0/router_0/sw_allocator | Input grants = [ 4 -> 27  6 -> 16  10 -> 28  ], output grants = [ 16 -> 6  27 -> 4  28 -> 10  ].
3 | network_0/router_0 | Switch allocation failed for VC 0 at input 4: Granted to VC 1.
3 | network_0/router_0 | Completed switch allocation for VC 0 at input 4 (front: 1).
3 | network_0/router_0 |   No output port allocated.
3 | network_0/router_0 | Beginning switch allocation for VC 0 at input 4 (front: 1).
3 | network_0/router_0 |   Requesting output 30.0 (non-spec, pri: 0).
3 | network_0/router_0/sw_allocator | Input requests = [ 4 -> [ 30@0 ]  13 -> [ 28@0 ]  ], output requests = [ 28 -> [ 13@0 ]  30 -> [ 4@0 ]  ].
3 | network_0/router_0/sw_allocator | Input grants = [ 4 -> 30  13 -> 28  ], output grants = [ 28 -> 13  30 -> 4  ].
3 | network_0/router_0 | Assigning output 30.0 to VC 0 at input 4.0.
3 | network_0/router_0 | Completed switch allocation for VC 0 at input 4 (front: 1).
3 | network_0/router_0 |   Scheduling switch connection from input 4.0 to output 30.0.
3 | network_0/router_0 | Beginning crossbar traversal for flit 1 from input 4.0 to output 30.0.
3 | network_0/router_0 | Completed crossbar traversal for flit 1 from input 4.0 to output 30.0.
3 | network_0/router_0 | Buffering flit 1 at output 30.
3 | network_0/router_0 | Sending flit 1 to channel at output 30.
4 | network_0/network_0_fchan_14 | Beginning channel traversal for flit 1 with delay 1.
4 | network_0/network_0_fchan_14 | Completed channel traversal for flit 1.
5 | network_0/router_15 | Received flit 1 from channel at input 16.
5 | network_0/router_15 | Adding flit 1 to VC 1 at input 16 (state: idle, empty).
5 | network_0/router_15/buf_16/vc_1 | Changing state from idle to routing.
5 | network_0/router_15 | Beginning routing for VC 1 at input 16 (front: 1).
5 | network_0/router_15 | Completed routing for VC 1 at input 16 (front: 1).
5 | network_0/router_15/buf_16/vc_1 | Changing state from routing to vc_alloc.
5 | network_0/router_15 | Beginning VC allocation for VC 1 at input 16 (front: 1).
5 | network_0/router_15 |   Requesting VC 0 at output 11 (in_pri: 0, out_pri: 0).
5 | network_0/router_15 |   Requesting VC 1 at output 11 (in_pri: 0, out_pri: 0).
5 | network_0/router_15/vc_allocator | Input requests = [ 18 -> [ 33@0 ]  20 -> [ 33@0 ]  26 -> [ 33@0 ]  30 -> [ 33@0 ]  33 -> [ 22@0 23@0 ]  50 -> [ 45@0 ]  ], output requests = [ 22 -> [ 33@0 ]  23 -> [ 33@0 ]  33 -> [ 18@0 20@0 26@0 30@0 ]  45 -> [ 50@0 ]  ].
5 | network_0/router_15/vc_allocator | Input grants = [ 18 -> 33  33 -> 22  50 -> 45  ], output grants = [ 22 -> 33  33 -> 18  45 -> 50  ].
5 | network_0/router_15 | Assigning VC 0 at output 11 to VC 1 at input 16.
5 | network_0/router_15 | Completed VC allocation for VC 1 at input 16 (front: 1).
5 | network_0/router_15 |   Acquiring assigned VC 0 at output 11.
5 | network_0/router_15/buf_16/vc_1 | Changing state from vc_alloc to active.
5 | network_0/router_15 | Beginning switch allocation for VC 1 at input 16 (front: 1).
5 | network_0/router_15 |   Requesting output 11.0 (non-spec, pri: 0).
5 | network_0/router_15/sw_allocator | Input requests = [ 9 -> [ 16@0 ]  16 -> [ 11@0 ]  25 -> [ 22@0 ]  ], output requests = [ 11 -> [ 16@0 ]  16 -> [ 9@0 ]  22 -> [ 25@0 ]  ].
5 | network_0/router_15/sw_allocator | Input grants = [ 9 -> 16  16 -> 11  25 -> 22  ], output grants = [ 11 -> 16  16 -> 9  22 -> 25  ].
5 | network_0/router_15 | Assigning output 11.0 to VC 1 at input 16.0.
5 | network_0/router_15 | Completed switch allocation for VC 1 at input 16 (front: 1).
5 | network_0/router_15 |   Scheduling switch connection from input 16.0 to output 11.0.
5 | network_0/router_15 | Beginning crossbar traversal for flit 1 from input 16.0 to output 11.0.
5 | network_0/router_15 | Completed crossbar traversal for flit 1 from input 16.0 to output 11.0.
5 | network_0/router_15 | Buffering flit 1 at output 11.
5 | network_0/router_15 | Sending flit 1 to channel at output 11.
6 | network_0/network_0_fchan_egress251 | Beginning channel traversal for flit 1 with delay 1.
6 | network_0/network_0_fchan_egress251 | Completed channel traversal for flit 1.
7 | node251 | Ejecting flit 1 (packet 1) from VC 0.
7 | node251 | Injecting credit for VC 0 into subnet 0.
7 | node251 | Retiring flit 1 (packet 1, src = 4, dest = 251, hops = 2, flat = 7).
7 | node251 | Retiring packet 1 (plat = 7, nlat = 7, frag = 0, src = 4, dest = 251).
Class 0:
Packet latency average = 8.5106
	minimum = 6
	maximum = 22
Network latency average = 8.5106
	minimum = 6
	maximum = 22
Slowest packet = 53460
Flit latency average = 8.5106
	minimum = 6
	maximum = 22
Slowest flit = 53460
Fragmentation average = 0
	minimum = 0
	maximum = 0
Injected packet rate average = 0.224508
	minimum = 0.186 (at node 34)
	maximum = 0.273 (at node 161)
Accepted packet rate average = 0.222547
	minimum = 0.183 (at node 221)
	maximum = 0.273 (at node 94)
Injected flit rate average = 0.224508
	minimum = 0.186 (at node 34)
	maximum = 0.273 (at node 161)
Accepted flit rate average= 0.222547
	minimum = 0.183 (at node 221)
	maximum = 0.273 (at node 94)
Injected packet length average = 1
Accepted packet length average = 1
Total in-flight flits = 502 (0 measured)
latency change    = 1
throughput change = 1
Class 0:
Packet latency average = 8.52664
	minimum = 6
	maximum = 23
Network latency average = 8.52664
	minimum = 6
	maximum = 23
Slowest packet = 74916
Flit latency average = 8.52664
	minimum = 6
	maximum = 23
Slowest flit = 74916
Fragmentation average = 0
	minimum = 0
	maximum = 0
Injected packet rate average = 0.224674
	minimum = 0.1915 (at node 34)
	maximum = 0.265 (at node 161)
Accepted packet rate average = 0.223719
	minimum = 0.191 (at node 221)
	maximum = 0.2645 (at node 94)
Injected flit rate average = 0.224674
	minimum = 0.1915 (at node 34)
	maximum = 0.265 (at node 161)
Accepted flit rate average= 0.223719
	minimum = 0.191 (at node 221)
	maximum = 0.2645 (at node 94)
Injected packet length average = 1
Accepted packet length average = 1
Total in-flight flits = 489 (0 measured)
latency change    = 0.00188152
throughput change = 0.00523816
Class 0:
Packet latency average = 8.55498
	minimum = 6
	maximum = 20
Network latency average = 8.55498
	minimum = 6
	maximum = 20
Slowest packet = 119492
Flit latency average = 8.55498
	minimum = 6
	maximum = 20
Slowest flit = 119492
Fragmentation average = 0
	minimum = 0
	maximum = 0
Injected packet rate average = 0.224512
	minimum = 0.188 (at node 17)
	maximum = 0.266 (at node 145)
Accepted packet rate average = 0.224254
	minimum = 0.188 (at node 238)
	maximum = 0.265 (at node 110)
Injected flit rate average = 0.224512
	minimum = 0.188 (at node 17)
	maximum = 0.266 (at node 145)
Accepted flit rate average= 0.224254
	minimum = 0.188 (at node 238)
	maximum = 0.265 (at node 110)
Injected packet length average = 1
Accepted packet length average = 1
Total in-flight flits = 555 (0 measured)
latency change    = 0.00331244
throughput change = 0.00238639
Warmed up ...Time used is 3000 cycles
Class 0:
Packet latency average = 8.53512
	minimum = 6
	maximum = 21
Network latency average = 8.53512
	minimum = 6
	maximum = 21
Slowest packet = 212212
Flit latency average = 8.54279
	minimum = 6
	maximum = 27
Slowest flit = 171879
Fragmentation average = 0
	minimum = 0
	maximum = 0
Injected packet rate average = 0.225426
	minimum = 0.193 (at node 44)
	maximum = 0.258 (at node 112)
Accepted packet rate average = 0.225672
	minimum = 0.194 (at node 53)
	maximum = 0.261 (at node 72)
Injected flit rate average = 0.225426
	minimum = 0.193 (at node 44)
	maximum = 0.258 (at node 112)
Accepted flit rate average= 0.225672
	minimum = 0.194 (at node 53)
	maximum = 0.261 (at node 72)
Injected packet length average = 1
Accepted packet length average = 1
Total in-flight flits = 492 (492 measured)
latency change    = 0.00232709
throughput change = 0.00628332
Class 0:
Packet latency average = 8.53333
	minimum = 6
	maximum = 21
Network latency average = 8.53333
	minimum = 6
	maximum = 21
Slowest packet = 212212
Flit latency average = 8.53717
	minimum = 6
	maximum = 27
Slowest flit = 171879
Fragmentation average = 0
	minimum = 0
	maximum = 0
Injected packet rate average = 0.225359
	minimum = 0.196 (at node 22)
	maximum = 0.248 (at node 97)
Accepted packet rate average = 0.225453
	minimum = 0.194 (at node 233)
	maximum = 0.249 (at node 158)
Injected flit rate average = 0.225359
	minimum = 0.196 (at node 22)
	maximum = 0.248 (at node 97)
Accepted flit rate average= 0.225453
	minimum = 0.194 (at node 233)
	maximum = 0.249 (at node 158)
Injected packet length average = 1
Accepted packet length average = 1
Total in-flight flits = 507 (507 measured)
latency change    = 0.000210203
throughput change = 0.000970268
Class 0:
Packet latency average = 8.53771
	minimum = 6
	maximum = 24
Network latency average = 8.53771
	minimum = 6
	maximum = 24
Slowest packet = 343787
Flit latency average = 8.54026
	minimum = 6
	maximum = 27
Slowest flit = 171879
Fragmentation average = 0
	minimum = 0
	maximum = 0
Injected packet rate average = 0.225355
	minimum = 0.196 (at node 22)
	maximum = 0.249667 (at node 220)
Accepted packet rate average = 0.225438
	minimum = 0.196 (at node 233)
	maximum = 0.248333 (at node 35)
Injected flit rate average = 0.225355
	minimum = 0.196 (at node 22)
	maximum = 0.249667 (at node 220)
Accepted flit rate average= 0.225438
	minimum = 0.196 (at node 233)
	maximum = 0.248333 (at node 35)
Injected packet length average = 1
Accepted packet length average = 1
Total in-flight flits = 492 (492 measured)
latency change    = 0.000513695
throughput change = 6.93097e-05
Draining all recorded packets ...
Draining remaining packets ...
Time taken is 6027 cycles
====== Overall Traffic Statistics ======
====== Traffic class 0 ======
Packet latency average = 8.53807 (1 samples)
	minimum = 6 (1 samples)
	maximum = 24 (1 samples)
Network latency average = 8.53807 (1 samples)
	minimum = 6 (1 samples)
	maximum = 24 (1 samples)
Flit latency average = 8.54016 (1 samples)
	minimum = 6 (1 samples)
	maximum = 27 (1 samples)
Fragmentation average = 0 (1 samples)
	minimum = 0 (1 samples)
	maximum = 0 (1 samples)
Injected packet rate average = 0.225355 (1 samples)
	minimum = 0.196 (1 samples)
	maximum = 0.249667 (1 samples)
Accepted packet rate average = 0.225438 (1 samples)
	minimum = 0.196 (1 samples)
	maximum = 0.248333 (1 samples)
Injected flit rate average = 0.225355 (1 samples)
	minimum = 0.196 (1 samples)
	maximum = 0.249667 (1 samples)
Accepted flit rate average = 0.225438 (1 samples)
	minimum = 0.196 (1 samples)
	maximum = 0.248333 (1 samples)
Injected packet size average = 1 (1 samples)
Accepted packet size average = 1 (1 samples)
Hops average = 2.73126 (1 samples)
Total run time 62.9532
