BEGIN Configuration File: ../../booksim2/src/examples/flatflyconfig
// $Id$

// Copyright (c) 2007-2015, Trustees of The Leland Stanford Junior University
// All rights reserved.
//
// Redistribution and use in source and binary forms, with or without
// modification, are permitted provided that the following conditions are met:
//
// Redistributions of source code must retain the above copyright notice, this
// list of conditions and the following disclaimer.
// Redistributions in binary form must reproduce the above copyright notice,
// this list of conditions and the following disclaimer in the documentation
// and/or other materials provided with the distribution.
//
// THIS SOFTWARE IS PROVIDED BY THE COPYRIGHT HOLDERS AND CONTRIBUTORS "AS IS"
// AND ANY EXPRESS OR IMPLIED WARRANTIES, INCLUDING, BUT NOT LIMITED TO, THE
// IMPLIED WARRANTIES OF MERCHANTABILITY AND FITNESS FOR A PARTICULAR PURPOSE
// ARE DISCLAIMED. IN NO EVENT SHALL THE COPYRIGHT OWNER OR CONTRIBUTORS BE
// LIABLE FOR ANY DIRECT, INDIRECT, INCIDENTAL, SPECIAL, EXEMPLARY, OR
// CONSEQUENTIAL DAMAGES (INCLUDING, BUT NOT LIMITED TO, PROCUREMENT OF
// SUBSTITUTE GOODS OR SERVICES; LOSS OF USE, DATA, OR PROFITS; OR BUSINESS
// INTERRUPTION) HOWEVER CAUSED AND ON ANY THEORY OF LIABILITY, WHETHER IN
// CONTRACT, STRICT LIABILITY, OR TORT (INCLUDING NEGLIGENCE OR OTHERWISE)
// ARISING IN ANY WAY OUT OF THE USE OF THIS SOFTWARE, EVEN IF ADVISED OF THE
// POSSIBILITY OF SUCH DAMAGE.

//A flattened butterfly configurate file with many tweaks from the
//default settings. 


// Flow control
// Total number of VCs must match the above assignments
num_vcs     = 2;
vc_buf_size = 16;

wait_for_tail_credit = 0;

//
// Router architectureq
//
vc_allocator = islip; 
sw_allocator = islip;
alloc_iters  = 3;

credit_delay   = 0;
routing_delay  = 1;
vc_alloc_delay = 1;
sw_alloc_delay = 1;
st_final_delay = 1;

input_speedup     = 1;
output_speedup    = 1;
internal_speedup  = 1.6;

//
// Traffic
//

warmup_periods = 3;

sample_period  = 1000;  

sim_count          = 1;

traffic       = bitrev;


// Flatfly 
//
// #node = k^(n+1)
//
// x, y, specifies the arrangement of routers in x and y dim
// xr, yr specifiies the arayment of clients in a router
//
topology = flatfly;
subnets = 1;

c  = 16;
k  = 16;
n  = 1;

x  = 16;
y  = 1;
xr = 16;
yr = 1;

use_noc_latency = 0;

//
// Routing
//

routing_function = ran_min;

//1: batch mode, 0: injection mode
use_read_write = 0;

//for injection mode
packet_size = 1;
injection_rate = 0.1;

//for batch mode
read_request_size=1;
write_request_size=1;
read_reply_size=1;
write_reply_size=1;

read_request_begin_vc  = 0;
read_request_end_vc    = 3;
write_reply_begin_vc   = 4;
write_reply_end_vc     = 7;
read_reply_begin_vc    = 4;
read_reply_end_vc      = 7;
write_request_begin_vc = 0;
write_request_end_vc   = 3;

//latency: drains all packet, throughput:no drain?
sim_type = latency;

watch_out = -;;END Configuration File: ../../booksim2/src/examples/flatflyconfig
OVERRIDE Parameter: traffic=bitcomp
OVERRIDE Parameter: routing_function=ugal
OVERRIDE Parameter: injection_rate={0.3}
OVERRIDE Parameter: c=16
OVERRIDE Parameter: k=16
OVERRIDE Parameter: x=16
OVERRIDE Parameter: xr=16
OVERRIDE Parameter: sim_type=latency
OVERRIDE Parameter: seed=1
 Flat Bufferfly 
 k = 16 n = 1 c = 16
 each switch - total radix =  31
 # of switches = 16
 # of channels = 240
 # of nodes ( size of network ) = 256
0 | node2 | Enqueuing flit 1 (packet 1) at time 0.
0 | traffic_manager | Finding output VC for flit 1:
0 | traffic_manager |   Selected output VC 0.
0 | node2 | Injecting flit 1 into subnet 0 at time 0 with priority 0.
1 | network_0/network_0_fchan_ingress2 | Beginning channel traversal for flit 1 with delay 1.
1 | network_0/network_0_fchan_ingress2 | Completed channel traversal for flit 1.
2 | network_0/router_0 | Received flit 1 from channel at input 2.
2 | network_0/router_0 | Adding flit 1 to VC 0 at input 2 (state: idle, empty).
2 | network_0/router_0/buf_2/vc_0 | Changing state from idle to routing.
2 | network_0/router_0 | Beginning routing for VC 0 at input 2 (front: 1).
2 | network_0/router_0 | Completed routing for VC 0 at input 2 (front: 1).
2 | network_0/router_0 |  MIN tmp_out_port: 302 | network_0/router_0 |  NONMIN tmp_out_port: 19
2 | network_0/router_0/buf_2/vc_0 | Changing state from routing to vc_alloc.
2 | network_0/router_0 | Beginning VC allocation for VC 0 at input 2 (front: 1).
2 | network_0/router_0 |   Requesting VC 1 at output 30 (in_pri: 0, out_pri: 0).
2 | network_0/router_0/vc_allocator | Input requests = [ 2 -> [ 61@0 ]  4 -> [ 61@0 ]  8 -> [ 61@0 ]  10 -> [ 61@0 ]  12 -> [ 61@0 ]  20 -> [ 61@0 ]  26 -> [ 61@0 ]  ], output requests = [ 61 -> [ 2@0 4@0 8@0 10@0 12@0 20@0 26@0 ]  ].
2 | network_0/router_0/vc_allocator | Input grants = [ 2 -> 61  ], output grants = [ 61 -> 2  ].
2 | network_0/router_0 | VC allocation failed for VC 0 at input 2.
2 | network_0/router_0 | Completed VC allocation for VC 0 at input 2 (front: 1).
2 | network_0/router_0 |   No output VC allocated.
3 | network_0/router_0 | Beginning VC allocation for VC 0 at input 2 (front: 1).
3 | network_0/router_0 |   Requesting VC 1 at output 30 (in_pri: 0, out_pri: 0).
3 | network_0/router_0/vc_allocator | Input requests = [ 4 -> [ 61@0 ]  8 -> [ 61@0 ]  9 -> [ 38@0 ]  10 -> [ 61@0 ]  11 -> [ 38@0 ]  12 -> [ 61@0 ]  13 -> [ 36@0 ]  20 -> [ 61@0 ]  21 -> [ 44@0 ]  26 -> [ 61@0 ]  27 -> [ 61@0 ]  ], output requests = [ 36 -> [ 13@0 ]  38 -> [ 9@0 11@0 ]  44 -> [ 21@0 ]  61 -> [ 4@0 8@0 10@0 12@0 20@0 26@0 27@0 ]  ].
3 | network_0/router_0/vc_allocator | Input grants = [ 4 -> 61  9 -> 38  13 -> 36  21 -> 44  ], output grants = [ 36 -> 13  38 -> 9  44 -> 21  61 -> 4  ].
3 | network_0/router_0 | Assigning VC 1 at output 30 to VC 0 at input 2.
3 | network_0/router_0 | Completed VC allocation for VC 0 at input 2 (front: 1).
3 | network_0/router_0 |   Acquiring assigned VC 1 at output 30.
3 | network_0/router_0/buf_2/vc_0 | Changing state from vc_alloc to active.
3 | network_0/router_0 | Beginning switch allocation for VC 0 at input 2 (front: 1).
3 | network_0/router_0 |   Requesting output 30.0 (non-spec, pri: 0).
3 | network_0/router_0/sw_allocator | Input requests = [ 2 -> [ 30@0 ]  4 -> [ 19@0 ]  6 -> [ 18@0 ]  10 -> [ 22@0 ]  ], output requests = [ 18 -> [ 6@0 ]  19 -> [ 4@0 ]  22 -> [ 10@0 ]  30 -> [ 2@0 ]  ].
3 | network_0/router_0/sw_allocator | Input grants = [ 2 -> 30  4 -> 19  6 -> 18  10 -> 22  ], output grants = [ 18 -> 6  19 -> 4  22 -> 10  30 -> 2  ].
3 | network_0/router_0 | Assigning output 30.0 to VC 0 at input 2.0.
3 | network_0/router_0 | Completed switch allocation for VC 0 at input 2 (front: 1).
3 | network_0/router_0 |   Scheduling switch connection from input 2.0 to output 30.0.
3 | network_0/router_0 | Beginning crossbar traversal for flit 1 from input 2.0 to output 30.0.
3 | network_0/router_0 | Completed crossbar traversal for flit 1 from input 2.0 to output 30.0.
3 | network_0/router_0 | Buffering flit 1 at output 30.
3 | network_0/router_0 | Sending flit 1 to channel at output 30.
4 | network_0/network_0_fchan_14 | Beginning channel traversal for flit 1 with delay 1.
4 | network_0/network_0_fchan_14 | Completed channel traversal for flit 1.
5 | network_0/router_15 | Received flit 1 from channel at input 16.
5 | network_0/router_15 | Adding flit 1 to VC 1 at input 16 (state: idle, empty).
5 | network_0/router_15/buf_16/vc_1 | Changing state from idle to routing.
5 | network_0/router_15 | Beginning routing for VC 1 at input 16 (front: 1).
5 | network_0/router_15 | Completed routing for VC 1 at input 16 (front: 1).
5 | network_0/router_15/buf_16/vc_1 | Changing state from routing to vc_alloc.
5 | network_0/router_15 | Beginning VC allocation for VC 1 at input 16 (front: 1).
5 | network_0/router_15 |   Requesting VC 0 at output 13 (in_pri: 0, out_pri: 0).
5 | network_0/router_15 |   Requesting VC 1 at output 13 (in_pri: 0, out_pri: 0).
5 | network_0/router_15/vc_allocator | Input requests = [ 8 -> [ 58@0 ]  18 -> [ 52@0 ]  20 -> [ 33@0 ]  21 -> [ 54@0 ]  24 -> [ 33@0 ]  26 -> [ 33@0 ]  33 -> [ 26@0 27@0 ]  34 -> [ 61@0 ]  40 -> [ 55@0 ]  50 -> [ 45@0 ]  54 -> [ 41@0 ]  ], output requests = [ 26 -> [ 33@0 ]  27 -> [ 33@0 ]  33 -> [ 20@0 24@0 26@0 ]  41 -> [ 54@0 ]  45 -> [ 50@0 ]  52 -> [ 18@0 ]  54 -> [ 21@0 ]  55 -> [ 40@0 ]  58 -> [ 8@0 ]  61 -> [ 34@0 ]  ].
5 | network_0/router_15/vc_allocator | Input grants = [ 8 -> 58  18 -> 52  20 -> 33  21 -> 54  33 -> 26  34 -> 61  40 -> 55  50 -> 45  54 -> 41  ], output grants = [ 26 -> 33  33 -> 20  41 -> 54  45 -> 50  52 -> 18  54 -> 21  55 -> 40  58 -> 8  61 -> 34  ].
5 | network_0/router_15 | Assigning VC 0 at output 13 to VC 1 at input 16.
5 | network_0/router_15 | Completed VC allocation for VC 1 at input 16 (front: 1).
5 | network_0/router_15 |   Acquiring assigned VC 0 at output 13.
5 | network_0/router_15/buf_16/vc_1 | Changing state from vc_alloc to active.
5 | network_0/router_15 | Beginning switch allocation for VC 1 at input 16 (front: 1).
5 | network_0/router_15 |   Requesting output 13.0 (non-spec, pri: 0).
5 | network_0/router_15/sw_allocator | Input requests = [ 4 -> [ 29@0 ]  9 -> [ 26@0 ]  10 -> [ 16@0 27@0 ]  16 -> [ 13@0 ]  17 -> [ 30@0 ]  20 -> [ 27@0 ]  25 -> [ 22@0 ]  27 -> [ 20@0 ]  ], output requests = [ 13 -> [ 16@0 ]  16 -> [ 10@0 ]  20 -> [ 27@0 ]  22 -> [ 25@0 ]  26 -> [ 9@0 ]  27 -> [ 10@0 20@0 ]  29 -> [ 4@0 ]  30 -> [ 17@0 ]  ].
5 | network_0/router_15/sw_allocator | Input grants = [ 4 -> 29  9 -> 26  10 -> 16  16 -> 13  17 -> 30  25 -> 22  27 -> 20  ], output grants = [ 13 -> 16  16 -> 10  20 -> 27  22 -> 25  26 -> 9  29 -> 4  30 -> 17  ].
5 | network_0/router_15 | Assigning output 13.0 to VC 1 at input 16.0.
5 | network_0/router_15 | Completed switch allocation for VC 1 at input 16 (front: 1).
5 | network_0/router_15 |   Scheduling switch connection from input 16.0 to output 13.0.
5 | network_0/router_15 | Beginning crossbar traversal for flit 1 from input 16.0 to output 13.0.
5 | network_0/router_15 | Completed crossbar traversal for flit 1 from input 16.0 to output 13.0.
5 | network_0/router_15 | Buffering flit 1 at output 13.
5 | network_0/router_15 | Sending flit 1 to channel at output 13.
6 | network_0/network_0_fchan_egress253 | Beginning channel traversal for flit 1 with delay 1.
6 | network_0/network_0_fchan_egress253 | Completed channel traversal for flit 1.
7 | node253 | Ejecting flit 1 (packet 1) from VC 0.
7 | node253 | Injecting credit for VC 0 into subnet 0.
7 | node253 | Retiring flit 1 (packet 1, src = 2, dest = 253, hops = 2, flat = 7).
7 | node253 | Retiring packet 1 (plat = 7, nlat = 7, frag = 0, src = 2, dest = 253).
Class 0:
Packet latency average = 9.36302
	minimum = 6
	maximum = 37
Network latency average = 9.36302
	minimum = 6
	maximum = 37
Slowest packet = 555
Flit latency average = 9.36302
	minimum = 6
	maximum = 37
Slowest flit = 555
Fragmentation average = 0
	minimum = 0
	maximum = 0
Injected packet rate average = 0.30084
	minimum = 0.258 (at node 128)
	maximum = 0.341 (at node 161)
Accepted packet rate average = 0.29802
	minimum = 0.254 (at node 127)
	maximum = 0.339 (at node 94)
Injected flit rate average = 0.30084
	minimum = 0.258 (at node 128)
	maximum = 0.341 (at node 161)
Accepted flit rate average= 0.29802
	minimum = 0.254 (at node 127)
	maximum = 0.339 (at node 94)
Injected packet length average = 1
Accepted packet length average = 1
Total in-flight flits = 722 (0 measured)
latency change    = 1
throughput change = 1
Class 0:
Packet latency average = 9.33856
	minimum = 6
	maximum = 37
Network latency average = 9.33856
	minimum = 6
	maximum = 37
Slowest packet = 555
Flit latency average = 9.33856
	minimum = 6
	maximum = 37
Slowest flit = 555
Fragmentation average = 0
	minimum = 0
	maximum = 0
Injected packet rate average = 0.300736
	minimum = 0.2755 (at node 152)
	maximum = 0.339 (at node 161)
Accepted packet rate average = 0.299316
	minimum = 0.2745 (at node 103)
	maximum = 0.3365 (at node 94)
Injected flit rate average = 0.300736
	minimum = 0.2755 (at node 152)
	maximum = 0.339 (at node 161)
Accepted flit rate average= 0.299316
	minimum = 0.2745 (at node 103)
	maximum = 0.3365 (at node 94)
Injected packet length average = 1
Accepted packet length average = 1
Total in-flight flits = 727 (0 measured)
latency change    = 0.00261893
throughput change = 0.00433279
Class 0:
Packet latency average = 9.35612
	minimum = 6
	maximum = 33
Network latency average = 9.35612
	minimum = 6
	maximum = 33
Slowest packet = 162215
Flit latency average = 9.35612
	minimum = 6
	maximum = 33
Slowest flit = 162215
Fragmentation average = 0
	minimum = 0
	maximum = 0
Injected packet rate average = 0.299461
	minimum = 0.257 (at node 17)
	maximum = 0.352 (at node 195)
Accepted packet rate average = 0.299258
	minimum = 0.256 (at node 238)
	maximum = 0.351 (at node 60)
Injected flit rate average = 0.299461
	minimum = 0.257 (at node 17)
	maximum = 0.352 (at node 195)
Accepted flit rate average= 0.299258
	minimum = 0.256 (at node 238)
	maximum = 0.351 (at node 60)
Injected packet length average = 1
Accepted packet length average = 1
Total in-flight flits = 779 (0 measured)
latency change    = 0.00187588
throughput change = 0.000195797
Warmed up ...Time used is 3000 cycles
Class 0:
Packet latency average = 9.34495
	minimum = 6
	maximum = 31
Network latency average = 9.34495
	minimum = 6
	maximum = 31
Slowest packet = 247442
Flit latency average = 9.34788
	minimum = 6
	maximum = 31
Slowest flit = 247442
Fragmentation average = 0
	minimum = 0
	maximum = 0
Injected packet rate average = 0.299934
	minimum = 0.26 (at node 44)
	maximum = 0.334 (at node 52)
Accepted packet rate average = 0.300145
	minimum = 0.261 (at node 211)
	maximum = 0.338 (at node 124)
Injected flit rate average = 0.299934
	minimum = 0.26 (at node 44)
	maximum = 0.334 (at node 52)
Accepted flit rate average= 0.300145
	minimum = 0.261 (at node 211)
	maximum = 0.338 (at node 124)
Injected packet length average = 1
Accepted packet length average = 1
Total in-flight flits = 725 (725 measured)
latency change    = 0.0011951
throughput change = 0.00295431
Class 0:
Packet latency average = 9.32935
	minimum = 6
	maximum = 31
Network latency average = 9.32935
	minimum = 6
	maximum = 31
Slowest packet = 247442
Flit latency average = 9.33089
	minimum = 6
	maximum = 31
Slowest flit = 247442
Fragmentation average = 0
	minimum = 0
	maximum = 0
Injected packet rate average = 0.300426
	minimum = 0.2715 (at node 227)
	maximum = 0.3295 (at node 159)
Accepted packet rate average = 0.300541
	minimum = 0.271 (at node 28)
	maximum = 0.3305 (at node 96)
Injected flit rate average = 0.300426
	minimum = 0.2715 (at node 227)
	maximum = 0.3295 (at node 159)
Accepted flit rate average= 0.300541
	minimum = 0.271 (at node 28)
	maximum = 0.3305 (at node 96)
Injected packet length average = 1
Accepted packet length average = 1
Total in-flight flits = 720 (720 measured)
latency change    = 0.00167173
throughput change = 0.00131924
Class 0:
Packet latency average = 9.33389
	minimum = 6
	maximum = 32
Network latency average = 9.33389
	minimum = 6
	maximum = 32
Slowest packet = 420195
Flit latency average = 9.3349
	minimum = 6
	maximum = 32
Slowest flit = 420195
Fragmentation average = 0
	minimum = 0
	maximum = 0
Injected packet rate average = 0.300665
	minimum = 0.277667 (at node 192)
	maximum = 0.328 (at node 97)
Accepted packet rate average = 0.300766
	minimum = 0.277 (at node 63)
	maximum = 0.328 (at node 158)
Injected flit rate average = 0.300665
	minimum = 0.277667 (at node 192)
	maximum = 0.328 (at node 97)
Accepted flit rate average= 0.300766
	minimum = 0.277 (at node 63)
	maximum = 0.328 (at node 158)
Injected packet length average = 1
Accepted packet length average = 1
Total in-flight flits = 702 (702 measured)
latency change    = 0.000486518
throughput change = 0.000746792
Draining all recorded packets ...
Draining remaining packets ...
Time taken is 6033 cycles
====== Overall Traffic Statistics ======
====== Traffic class 0 ======
Packet latency average = 9.33507 (1 samples)
	minimum = 6 (1 samples)
	maximum = 32 (1 samples)
Network latency average = 9.33507 (1 samples)
	minimum = 6 (1 samples)
	maximum = 32 (1 samples)
Flit latency average = 9.33512 (1 samples)
	minimum = 6 (1 samples)
	maximum = 32 (1 samples)
Fragmentation average = 0 (1 samples)
	minimum = 0 (1 samples)
	maximum = 0 (1 samples)
Injected packet rate average = 0.300665 (1 samples)
	minimum = 0.277667 (1 samples)
	maximum = 0.328 (1 samples)
Accepted packet rate average = 0.300766 (1 samples)
	minimum = 0.277 (1 samples)
	maximum = 0.328 (1 samples)
Injected flit rate average = 0.300665 (1 samples)
	minimum = 0.277667 (1 samples)
	maximum = 0.328 (1 samples)
Accepted flit rate average = 0.300766 (1 samples)
	minimum = 0.277 (1 samples)
	maximum = 0.328 (1 samples)
Injected packet size average = 1 (1 samples)
Accepted packet size average = 1 (1 samples)
Hops average = 2.79252 (1 samples)
Total run time 69.1438
