BEGIN Configuration File: ../../booksim2/src/examples/flatflyconfig
// $Id$

// Copyright (c) 2007-2015, Trustees of The Leland Stanford Junior University
// All rights reserved.
//
// Redistribution and use in source and binary forms, with or without
// modification, are permitted provided that the following conditions are met:
//
// Redistributions of source code must retain the above copyright notice, this
// list of conditions and the following disclaimer.
// Redistributions in binary form must reproduce the above copyright notice,
// this list of conditions and the following disclaimer in the documentation
// and/or other materials provided with the distribution.
//
// THIS SOFTWARE IS PROVIDED BY THE COPYRIGHT HOLDERS AND CONTRIBUTORS "AS IS"
// AND ANY EXPRESS OR IMPLIED WARRANTIES, INCLUDING, BUT NOT LIMITED TO, THE
// IMPLIED WARRANTIES OF MERCHANTABILITY AND FITNESS FOR A PARTICULAR PURPOSE
// ARE DISCLAIMED. IN NO EVENT SHALL THE COPYRIGHT OWNER OR CONTRIBUTORS BE
// LIABLE FOR ANY DIRECT, INDIRECT, INCIDENTAL, SPECIAL, EXEMPLARY, OR
// CONSEQUENTIAL DAMAGES (INCLUDING, BUT NOT LIMITED TO, PROCUREMENT OF
// SUBSTITUTE GOODS OR SERVICES; LOSS OF USE, DATA, OR PROFITS; OR BUSINESS
// INTERRUPTION) HOWEVER CAUSED AND ON ANY THEORY OF LIABILITY, WHETHER IN
// CONTRACT, STRICT LIABILITY, OR TORT (INCLUDING NEGLIGENCE OR OTHERWISE)
// ARISING IN ANY WAY OUT OF THE USE OF THIS SOFTWARE, EVEN IF ADVISED OF THE
// POSSIBILITY OF SUCH DAMAGE.

//A flattened butterfly configurate file with many tweaks from the
//default settings. 


// Flow control
// Total number of VCs must match the above assignments
num_vcs     = 2;
vc_buf_size = 16;

wait_for_tail_credit = 0;

//
// Router architectureq
//
vc_allocator = islip; 
sw_allocator = islip;
alloc_iters  = 3;

credit_delay   = 0;
routing_delay  = 1;
vc_alloc_delay = 1;
sw_alloc_delay = 1;
st_final_delay = 1;

input_speedup     = 1;
output_speedup    = 1;
internal_speedup  = 1.6;

//
// Traffic
//

warmup_periods = 3;

sample_period  = 1000;  

sim_count          = 1;

traffic       = bitrev;


// Flatfly 
//
// #node = k^(n+1)
//
// x, y, specifies the arrangement of routers in x and y dim
// xr, yr specifiies the arayment of clients in a router
//
topology = flatfly;
subnets = 1;

c  = 16;
k  = 16;
n  = 1;

x  = 16;
y  = 1;
xr = 16;
yr = 1;

use_noc_latency = 0;

//
// Routing
//

routing_function = ran_min;

//1: batch mode, 0: injection mode
use_read_write = 0;

//for injection mode
packet_size = 1;
injection_rate = 0.1;

//for batch mode
read_request_size=1;
write_request_size=1;
read_reply_size=1;
write_reply_size=1;

read_request_begin_vc  = 0;
read_request_end_vc    = 3;
write_reply_begin_vc   = 4;
write_reply_end_vc     = 7;
read_reply_begin_vc    = 4;
read_reply_end_vc      = 7;
write_request_begin_vc = 0;
write_request_end_vc   = 3;

//latency: drains all packet, throughput:no drain?
sim_type = latency;

watch_out = -;

END Configuration File: ../../booksim2/src/examples/flatflyconfig
OVERRIDE Parameter: traffic=bitcomp
OVERRIDE Parameter: injection_rate={0.075}
OVERRIDE Parameter: c=16
OVERRIDE Parameter: k=16
OVERRIDE Parameter: x=16
OVERRIDE Parameter: xr=16
OVERRIDE Parameter: sim_type=latency
 Flat Bufferfly 
 k = 16 n = 1 c = 16
 each switch - total radix =  31
 # of switches = 16
 # of channels = 240
 # of nodes ( size of network ) = 256
0 | node34 | Enqueuing flit 1 (packet 1) at time 0.
0 | traffic_manager | Finding output VC for flit 1:
0 | traffic_manager |   Selected output VC 0.
0 | node34 | Injecting flit 1 into subnet 0 at time 0 with priority 0.
1 | network_0/network_0_fchan_ingress34 | Beginning channel traversal for flit 1 with delay 1.
1 | network_0/network_0_fchan_ingress34 | Completed channel traversal for flit 1.
2 | network_0/router_2 | Received flit 1 from channel at input 2.
2 | network_0/router_2 | Adding flit 1 to VC 0 at input 2 (state: idle, empty).
2 | network_0/router_2/buf_2/vc_0 | Changing state from idle to routing.
2 | network_0/router_2 | Beginning routing for VC 0 at input 2 (front: 1).
2 | network_0/router_2 | Completed routing for VC 0 at input 2 (front: 1).
2 | network_0/router_2/buf_2/vc_0 | Changing state from routing to vc_alloc.
3 | network_0/router_2 | Beginning VC allocation for VC 0 at input 2 (front: 1).
3 | network_0/router_2 |   Requesting VC 0 at output 28 (in_pri: 0, out_pri: 0).
3 | network_0/router_2 |   Requesting VC 1 at output 28 (in_pri: 0, out_pri: 0).
3 | network_0/router_2/vc_allocator | Input requests = [ 4 -> [ 56@0 57@0 ]  ], output requests = [ 56 -> [ 4@0 ]  57 -> [ 4@0 ]  ].
3 | network_0/router_2/vc_allocator | Input grants = [ 4 -> 56  ], output grants = [ 56 -> 4  ].
3 | network_0/router_2 | Assigning VC 0 at output 28 to VC 0 at input 2.
3 | network_0/router_2 | Completed VC allocation for VC 0 at input 2 (front: 1).
3 | network_0/router_2 |   Acquiring assigned VC 0 at output 28.
3 | network_0/router_2/buf_2/vc_0 | Changing state from vc_alloc to active.
3 | network_0/router_2 | Beginning switch allocation for VC 0 at input 2 (front: 1).
3 | network_0/router_2 |   Requesting output 28.0 (non-spec, pri: 0).
3 | network_0/router_2/sw_allocator | Input requests = [ 2 -> [ 28@0 ]  ], output requests = [ 28 -> [ 2@0 ]  ].
3 | network_0/router_2/sw_allocator | Input grants = [ 2 -> 28  ], output grants = [ 28 -> 2  ].
3 | network_0/router_2 | Assigning output 28.0 to VC 0 at input 2.0.
3 | network_0/router_2 | Completed switch allocation for VC 0 at input 2 (front: 1).
3 | network_0/router_2 |   Scheduling switch connection from input 2.0 to output 28.0.
4 | network_0/router_2 | Beginning crossbar traversal for flit 1 from input 2.0 to output 28.0.
4 | network_0/router_2 | Completed crossbar traversal for flit 1 from input 2.0 to output 28.0.
4 | network_0/router_2 | Buffering flit 1 at output 28.
4 | network_0/router_2 | Sending flit 1 to channel at output 28.
5 | network_0/network_0_fchan_42 | Beginning channel traversal for flit 1 with delay 1.
5 | network_0/network_0_fchan_42 | Completed channel traversal for flit 1.
6 | network_0/router_13 | Received flit 1 from channel at input 18.
6 | network_0/router_13 | Adding flit 1 to VC 0 at input 18 (state: idle, empty).
6 | network_0/router_13/buf_18/vc_0 | Changing state from idle to routing.
6 | network_0/router_13 | Beginning routing for VC 0 at input 18 (front: 1).
6 | network_0/router_13 | Completed routing for VC 0 at input 18 (front: 1).
6 | network_0/router_13/buf_18/vc_0 | Changing state from routing to vc_alloc.
6 | network_0/router_13 | Beginning VC allocation for VC 0 at input 18 (front: 1).
6 | network_0/router_13 |   Requesting VC 0 at output 13 (in_pri: 0, out_pri: 0).
6 | network_0/router_13 |   Requesting VC 1 at output 13 (in_pri: 0, out_pri: 0).
6 | network_0/router_13/vc_allocator | Input requests = [ 30 -> [ 37@0 ]  36 -> [ 26@0 27@0 ]  ], output requests = [ 26 -> [ 36@0 ]  27 -> [ 36@0 ]  37 -> [ 30@0 ]  ].
6 | network_0/router_13/vc_allocator | Input grants = [ 30 -> 37  36 -> 26  ], output grants = [ 26 -> 36  37 -> 30  ].
6 | network_0/router_13 | Assigning VC 0 at output 13 to VC 0 at input 18.
6 | network_0/router_13 | Completed VC allocation for VC 0 at input 18 (front: 1).
6 | network_0/router_13 |   Acquiring assigned VC 0 at output 13.
6 | network_0/router_13/buf_18/vc_0 | Changing state from vc_alloc to active.
7 | network_0/router_13 | Beginning switch allocation for VC 0 at input 18 (front: 1).
7 | network_0/router_13 |   Requesting output 13.0 (non-spec, pri: 0).
7 | network_0/router_13/sw_allocator | Input requests = [ 15 -> [ 18@0 ]  18 -> [ 13@0 ]  ], output requests = [ 13 -> [ 18@0 ]  18 -> [ 15@0 ]  ].
7 | network_0/router_13/sw_allocator | Input grants = [ 15 -> 18  18 -> 13  ], output grants = [ 13 -> 18  18 -> 15  ].
7 | network_0/router_13 | Assigning output 13.0 to VC 0 at input 18.0.
7 | network_0/router_13 | Completed switch allocation for VC 0 at input 18 (front: 1).
7 | network_0/router_13 |   Scheduling switch connection from input 18.0 to output 13.0.
8 | network_0/router_13 | Beginning crossbar traversal for flit 1 from input 18.0 to output 13.0.
8 | network_0/router_13 | Completed crossbar traversal for flit 1 from input 18.0 to output 13.0.
8 | network_0/router_13 | Buffering flit 1 at output 13.
8 | network_0/router_13 | Sending flit 1 to channel at output 13.
9 | network_0/network_0_fchan_egress221 | Beginning channel traversal for flit 1 with delay 1.
9 | network_0/network_0_fchan_egress221 | Completed channel traversal for flit 1.
10 | node221 | Ejecting flit 1 (packet 1) from VC 0.
10 | node221 | Injecting credit for VC 0 into subnet 0.
10 | node221 | Retiring flit 1 (packet 1, src = 34, dest = 221, hops = 2, flat = 10).
10 | node221 | Retiring packet 1 (plat = 10, nlat = 10, frag = 0, src = 34, dest = 221).
Class 0:
Packet latency average = 86.499
	minimum = 9
	maximum = 407
Network latency average = 86.499
	minimum = 9
	maximum = 407
Slowest packet = 11117
Flit latency average = 86.499
	minimum = 9
	maximum = 407
Slowest flit = 11117
Fragmentation average = 0
	minimum = 0
	maximum = 0
Injected packet rate average = 0.0744922
	minimum = 0.055 (at node 254)
	maximum = 0.1 (at node 0)
Accepted packet rate average = 0.0617305
	minimum = 0.049 (at node 164)
	maximum = 0.076 (at node 162)
Injected flit rate average = 0.0744922
	minimum = 0.055 (at node 254)
	maximum = 0.1 (at node 0)
Accepted flit rate average= 0.0617305
	minimum = 0.049 (at node 164)
	maximum = 0.076 (at node 162)
Injected packet length average = 1
Accepted packet length average = 1
Total in-flight flits = 3268 (0 measured)
latency change    = 1
throughput change = 1
Class 0:
Packet latency average = 166.519
	minimum = 9
	maximum = 706
Network latency average = 166.326
	minimum = 9
	maximum = 542
Slowest packet = 15146
Flit latency average = 166.326
	minimum = 9
	maximum = 542
Slowest flit = 21893
Fragmentation average = 0
	minimum = 0
	maximum = 0
Injected packet rate average = 0.073791
	minimum = 0.059 (at node 254)
	maximum = 0.0855 (at node 194)
Accepted packet rate average = 0.0621152
	minimum = 0.0555 (at node 164)
	maximum = 0.069 (at node 35)
Injected flit rate average = 0.073791
	minimum = 0.059 (at node 254)
	maximum = 0.0855 (at node 194)
Accepted flit rate average= 0.0621152
	minimum = 0.0555 (at node 164)
	maximum = 0.069 (at node 35)
Injected packet length average = 1
Accepted packet length average = 1
Total in-flight flits = 6020 (0 measured)
latency change    = 0.480546
throughput change = 0.00619438
Class 0:
Packet latency average = 408.029
	minimum = 35
	maximum = 1044
Network latency average = 389.864
	minimum = 35
	maximum = 542
Slowest packet = 27304
Flit latency average = 389.864
	minimum = 35
	maximum = 542
Slowest flit = 27429
Fragmentation average = 0
	minimum = 0
	maximum = 0
Injected packet rate average = 0.0695234
	minimum = 0.054 (at node 206)
	maximum = 0.091 (at node 20)
Accepted packet rate average = 0.0625
	minimum = 0.056 (at node 53)
	maximum = 0.064 (at node 0)
Injected flit rate average = 0.0695234
	minimum = 0.054 (at node 206)
	maximum = 0.091 (at node 20)
Accepted flit rate average= 0.0625
	minimum = 0.056 (at node 53)
	maximum = 0.064 (at node 0)
Injected packet length average = 1
Accepted packet length average = 1
Total in-flight flits = 7918 (0 measured)
latency change    = 0.591894
throughput change = 0.00615625
Warmed up ...Time used is 3000 cycles
Class 0:
Packet latency average = 593.432
	minimum = 37
	maximum = 1226
Network latency average = 482.565
	minimum = 37
	maximum = 542
Slowest packet = 55732
Flit latency average = 485.87
	minimum = 37
	maximum = 542
Slowest flit = 46177
Fragmentation average = 0
	minimum = 0
	maximum = 0
Injected packet rate average = 0.0648203
	minimum = 0.055 (at node 220)
	maximum = 0.083 (at node 212)
Accepted packet rate average = 0.0625
	minimum = 0.059 (at node 1)
	maximum = 0.064 (at node 11)
Injected flit rate average = 0.0648203
	minimum = 0.055 (at node 220)
	maximum = 0.083 (at node 212)
Accepted flit rate average= 0.0625
	minimum = 0.059 (at node 1)
	maximum = 0.064 (at node 11)
Injected packet length average = 1
Accepted packet length average = 1
Total in-flight flits = 8574 (8574 measured)
latency change    = 0.312424
throughput change = 0
Average latency for class 0 exceeded 500 cycles. Aborting simulation.
Too many sample periods needed to converge
Simulation unstable, ending ...
Total run time 9.87829
