BEGIN Configuration File: ../../booksim2/src/examples/flatflyconfig
// $Id$

// Copyright (c) 2007-2015, Trustees of The Leland Stanford Junior University
// All rights reserved.
//
// Redistribution and use in source and binary forms, with or without
// modification, are permitted provided that the following conditions are met:
//
// Redistributions of source code must retain the above copyright notice, this
// list of conditions and the following disclaimer.
// Redistributions in binary form must reproduce the above copyright notice,
// this list of conditions and the following disclaimer in the documentation
// and/or other materials provided with the distribution.
//
// THIS SOFTWARE IS PROVIDED BY THE COPYRIGHT HOLDERS AND CONTRIBUTORS "AS IS"
// AND ANY EXPRESS OR IMPLIED WARRANTIES, INCLUDING, BUT NOT LIMITED TO, THE
// IMPLIED WARRANTIES OF MERCHANTABILITY AND FITNESS FOR A PARTICULAR PURPOSE
// ARE DISCLAIMED. IN NO EVENT SHALL THE COPYRIGHT OWNER OR CONTRIBUTORS BE
// LIABLE FOR ANY DIRECT, INDIRECT, INCIDENTAL, SPECIAL, EXEMPLARY, OR
// CONSEQUENTIAL DAMAGES (INCLUDING, BUT NOT LIMITED TO, PROCUREMENT OF
// SUBSTITUTE GOODS OR SERVICES; LOSS OF USE, DATA, OR PROFITS; OR BUSINESS
// INTERRUPTION) HOWEVER CAUSED AND ON ANY THEORY OF LIABILITY, WHETHER IN
// CONTRACT, STRICT LIABILITY, OR TORT (INCLUDING NEGLIGENCE OR OTHERWISE)
// ARISING IN ANY WAY OUT OF THE USE OF THIS SOFTWARE, EVEN IF ADVISED OF THE
// POSSIBILITY OF SUCH DAMAGE.

//A flattened butterfly configurate file with many tweaks from the
//default settings. 


// Flow control
// Total number of VCs must match the above assignments
num_vcs     = 2;
vc_buf_size = 16;

wait_for_tail_credit = 0;

//
// Router architectureq
//
vc_allocator = islip; 
sw_allocator = islip;
alloc_iters  = 3;

credit_delay   = 0;
routing_delay  = 1;
vc_alloc_delay = 1;
sw_alloc_delay = 1;
st_final_delay = 1;

input_speedup     = 1;
output_speedup    = 1;
internal_speedup  = 1.6;

//
// Traffic
//

warmup_periods = 3;

sample_period  = 1000;  

sim_count          = 1;

traffic       = bitrev;


// Flatfly 
//
// #node = k^(n+1)
//
// x, y, specifies the arrangement of routers in x and y dim
// xr, yr specifiies the arayment of clients in a router
//
topology = flatfly;
subnets = 1;

c  = 16;
k  = 16;
n  = 1;

x  = 16;
y  = 1;
xr = 16;
yr = 1;

use_noc_latency = 0;

//
// Routing
//

routing_function = ran_min;

//1: batch mode, 0: injection mode
use_read_write = 0;

//for injection mode
packet_size = 1;
injection_rate = 0.1;

//for batch mode
read_request_size=1;
write_request_size=1;
read_reply_size=1;
write_reply_size=1;

read_request_begin_vc  = 0;
read_request_end_vc    = 3;
write_reply_begin_vc   = 4;
write_reply_end_vc     = 7;
read_reply_begin_vc    = 4;
read_reply_end_vc      = 7;
write_request_begin_vc = 0;
write_request_end_vc   = 3;

//latency: drains all packet, throughput:no drain?
sim_type = latency;

watch_out = -;

END Configuration File: ../../booksim2/src/examples/flatflyconfig
OVERRIDE Parameter: traffic=bitcomp
OVERRIDE Parameter: injection_rate={0.5}
OVERRIDE Parameter: c=16
OVERRIDE Parameter: k=16
OVERRIDE Parameter: x=16
OVERRIDE Parameter: xr=16
OVERRIDE Parameter: sim_type=latency
 Flat Bufferfly 
 k = 16 n = 1 c = 16
 each switch - total radix =  31
 # of switches = 16
 # of channels = 240
 # of nodes ( size of network ) = 256
0 | node5 | Enqueuing flit 1 (packet 1) at time 0.
0 | traffic_manager | Finding output VC for flit 1:
0 | traffic_manager |   Selected output VC 0.
0 | node5 | Injecting flit 1 into subnet 0 at time 0 with priority 0.
1 | network_0/network_0_fchan_ingress5 | Beginning channel traversal for flit 1 with delay 1.
1 | network_0/network_0_fchan_ingress5 | Completed channel traversal for flit 1.
2 | network_0/router_0 | Received flit 1 from channel at input 5.
2 | network_0/router_0 | Adding flit 1 to VC 0 at input 5 (state: idle, empty).
2 | network_0/router_0/buf_5/vc_0 | Changing state from idle to routing.
2 | network_0/router_0 | Beginning routing for VC 0 at input 5 (front: 1).
2 | network_0/router_0 | Completed routing for VC 0 at input 5 (front: 1).
2 | network_0/router_0/buf_5/vc_0 | Changing state from routing to vc_alloc.
3 | network_0/router_0 | Beginning VC allocation for VC 0 at input 5 (front: 1).
3 | network_0/router_0 |   Requesting VC 0 at output 30 (in_pri: 0, out_pri: 0).
3 | network_0/router_0 |   Requesting VC 1 at output 30 (in_pri: 0, out_pri: 0).
3 | network_0/router_0/vc_allocator | Input requests = [ 8 -> [ 60@0 61@0 ]  10 -> [ 60@0 61@0 ]  16 -> [ 60@0 61@0 ]  18 -> [ 60@0 61@0 ]  22 -> [ 60@0 61@0 ]  24 -> [ 60@0 61@0 ]  26 -> [ 60@0 61@0 ]  28 -> [ 60@0 61@0 ]  30 -> [ 60@0 61@0 ]  ], output requests = [ 60 -> [ 8@0 10@0 16@0 18@0 22@0 24@0 26@0 28@0 30@0 ]  61 -> [ 8@0 10@0 16@0 18@0 22@0 24@0 26@0 28@0 30@0 ]  ].
3 | network_0/router_0/vc_allocator | Input grants = [ 8 -> 60  ], output grants = [ 60 -> 8  ].
3 | network_0/router_0 | VC allocation failed for VC 0 at input 5.
3 | network_0/router_0 | Completed VC allocation for VC 0 at input 5 (front: 1).
3 | network_0/router_0 |   No output VC allocated.
3 | network_0/router_0 | Beginning VC allocation for VC 0 at input 5 (front: 1).
3 | network_0/router_0 |   VC 0 at output 30 is in use by VC 0 at input 4 (front flit: 0).
3 | network_0/router_0 |   Requesting VC 1 at output 30 (in_pri: 0, out_pri: 0).
3 | network_0/router_0/vc_allocator | Input requests = [ 2 -> [ 61@0 ]  6 -> [ 61@0 ]  9 -> [ 61@0 ]  10 -> [ 61@0 ]  11 -> [ 61@0 ]  16 -> [ 61@0 ]  17 -> [ 61@0 ]  18 -> [ 61@0 ]  22 -> [ 61@0 ]  23 -> [ 61@0 ]  24 -> [ 61@0 ]  25 -> [ 61@0 ]  26 -> [ 61@0 ]  27 -> [ 61@0 ]  28 -> [ 61@0 ]  29 -> [ 61@0 ]  30 -> [ 61@0 ]  31 -> [ 61@0 ]  ], output requests = [ 61 -> [ 2@0 6@0 9@0 10@0 11@0 16@0 17@0 18@0 22@0 23@0 24@0 25@0 26@0 27@0 28@0 29@0 30@0 31@0 ]  ].
3 | network_0/router_0/vc_allocator | Input grants = [ 2 -> 61  ], output grants = [ 61 -> 2  ].
3 | network_0/router_0 | VC allocation failed for VC 0 at input 5.
3 | network_0/router_0 | Completed VC allocation for VC 0 at input 5 (front: 1).
3 | network_0/router_0 |   No output VC allocated.
4 | network_0/router_0 | Beginning VC allocation for VC 0 at input 5 (front: 1).
4 | network_0/router_0 |   Requesting VC 0 at output 30 (in_pri: 0, out_pri: 0).
4 | network_0/router_0 |   VC 1 at output 30 is in use by VC 0 at input 1 (front flit: 118).
4 | network_0/router_0/vc_allocator | Input requests = [ 6 -> [ 60@0 ]  9 -> [ 60@0 ]  10 -> [ 60@0 ]  11 -> [ 60@0 ]  16 -> [ 60@0 ]  17 -> [ 60@0 ]  18 -> [ 60@0 ]  22 -> [ 60@0 ]  23 -> [ 60@0 ]  24 -> [ 60@0 ]  25 -> [ 60@0 ]  26 -> [ 60@0 ]  27 -> [ 60@0 ]  28 -> [ 60@0 ]  29 -> [ 60@0 ]  30 -> [ 60@0 ]  31 -> [ 60@0 ]  ], output requests = [ 60 -> [ 6@0 9@0 10@0 11@0 16@0 17@0 18@0 22@0 23@0 24@0 25@0 26@0 27@0 28@0 29@0 30@0 31@0 ]  ].
4 | network_0/router_0/vc_allocator | Input grants = [ 9 -> 60  ], output grants = [ 60 -> 9  ].
4 | network_0/router_0 | VC allocation failed for VC 0 at input 5.
4 | network_0/router_0 | Completed VC allocation for VC 0 at input 5 (front: 1).
4 | network_0/router_0 |   No output VC allocated.
4 | network_0/router_0 | Beginning VC allocation for VC 0 at input 5 (front: 1).
4 | network_0/router_0 |   VC 0 at output 30 is in use by VC 1 at input 4 (front flit: 120).
4 | network_0/router_0 |   Requesting VC 1 at output 30 (in_pri: 0, out_pri: 0).
4 | network_0/router_0/vc_allocator | Input requests = [ 0 -> [ 61@0 ]  3 -> [ 61@0 ]  6 -> [ 61@0 ]  7 -> [ 61@0 ]  8 -> [ 61@0 ]  10 -> [ 61@0 ]  11 -> [ 61@0 ]  12 -> [ 61@0 ]  16 -> [ 61@0 ]  17 -> [ 61@0 ]  18 -> [ 61@0 ]  20 -> [ 61@0 ]  22 -> [ 61@0 ]  23 -> [ 61@0 ]  24 -> [ 61@0 ]  25 -> [ 61@0 ]  26 -> [ 61@0 ]  27 -> [ 61@0 ]  28 -> [ 61@0 ]  29 -> [ 61@0 ]  30 -> [ 61@0 ]  31 -> [ 61@0 ]  ], output requests = [ 61 -> [ 0@0 3@0 6@0 7@0 8@0 10@0 11@0 12@0 16@0 17@0 18@0 20@0 22@0 23@0 24@0 25@0 26@0 27@0 28@0 29@0 30@0 31@0 ]  ].
4 | network_0/router_0/vc_allocator | Input grants = [ 3 -> 61  ], output grants = [ 61 -> 3  ].
4 | network_0/router_0 | VC allocation failed for VC 0 at input 5.
4 | network_0/router_0 | Completed VC allocation for VC 0 at input 5 (front: 1).
4 | network_0/router_0 |   No output VC allocated.
5 | network_0/router_0 | Beginning VC allocation for VC 0 at input 5 (front: 1).
5 | network_0/router_0 |   Requesting VC 0 at output 30 (in_pri: 0, out_pri: 0).
5 | network_0/router_0 |   VC 1 at output 30 is in use by VC 1 at input 1 (front flit: 262).
5 | network_0/router_0/vc_allocator | Input requests = [ 0 -> [ 60@0 ]  6 -> [ 60@0 ]  7 -> [ 60@0 ]  8 -> [ 60@0 ]  10 -> [ 60@0 ]  11 -> [ 60@0 ]  12 -> [ 60@0 ]  16 -> [ 60@0 ]  17 -> [ 60@0 ]  18 -> [ 60@0 ]  20 -> [ 60@0 ]  22 -> [ 60@0 ]  23 -> [ 60@0 ]  24 -> [ 60@0 ]  25 -> [ 60@0 ]  26 -> [ 60@0 ]  27 -> [ 60@0 ]  28 -> [ 60@0 ]  29 -> [ 60@0 ]  30 -> [ 60@0 ]  31 -> [ 60@0 ]  ], output requests = [ 60 -> [ 0@0 6@0 7@0 8@0 10@0 11@0 12@0 16@0 17@0 18@0 20@0 22@0 23@0 24@0 25@0 26@0 27@0 28@0 29@0 30@0 31@0 ]  ].
5 | network_0/router_0/vc_allocator | Input grants = [ 10 -> 60  ], output grants = [ 60 -> 10  ].
5 | network_0/router_0 | Assigning VC 0 at output 30 to VC 0 at input 5.
5 | network_0/router_0 | Completed VC allocation for VC 0 at input 5 (front: 1).
5 | network_0/router_0 |   Acquiring assigned VC 0 at output 30.
5 | network_0/router_0/buf_5/vc_0 | Changing state from vc_alloc to active.
6 | network_0/router_0 | Beginning switch allocation for VC 0 at input 5 (front: 1).
6 | network_0/router_0 |   Requesting output 30.0 (non-spec, pri: 0).
6 | network_0/router_0/sw_allocator | Input requests = [ 5 -> [ 30@0 ]  ], output requests = [ 30 -> [ 5@0 ]  ].
6 | network_0/router_0/sw_allocator | Input grants = [ 5 -> 30  ], output grants = [ 30 -> 5  ].
6 | network_0/router_0 | Assigning output 30.0 to VC 0 at input 5.0.
6 | network_0/router_0 | Completed switch allocation for VC 0 at input 5 (front: 1).
6 | network_0/router_0 |   Scheduling switch connection from input 5.0 to output 30.0.
6 | network_0/router_0 | Beginning crossbar traversal for flit 1 from input 5.0 to output 30.0.
6 | network_0/router_0 | Completed crossbar traversal for flit 1 from input 5.0 to output 30.0.
6 | network_0/router_0 | Buffering flit 1 at output 30.
8 | network_0/router_0 | Sending flit 1 to channel at output 30.
9 | network_0/network_0_fchan_14 | Beginning channel traversal for flit 1 with delay 1.
9 | network_0/network_0_fchan_14 | Completed channel traversal for flit 1.
10 | network_0/router_15 | Received flit 1 from channel at input 16.
10 | network_0/router_15 | Adding flit 1 to VC 0 at input 16 (state: idle, empty).
10 | network_0/router_15/buf_16/vc_0 | Changing state from idle to routing.
10 | network_0/router_15 | Beginning routing for VC 0 at input 16 (front: 1).
10 | network_0/router_15 | Completed routing for VC 0 at input 16 (front: 1).
10 | network_0/router_15/buf_16/vc_0 | Changing state from routing to vc_alloc.
11 | network_0/router_15 | Beginning VC allocation for VC 0 at input 16 (front: 1).
11 | network_0/router_15 |   Requesting VC 0 at output 10 (in_pri: 0, out_pri: 0).
11 | network_0/router_15 |   Requesting VC 1 at output 10 (in_pri: 0, out_pri: 0).
11 | network_0/router_15/vc_allocator | Input requests = [ 0 -> [ 33@0 ]  1 -> [ 33@0 ]  2 -> [ 33@0 ]  4 -> [ 33@0 ]  5 -> [ 33@0 ]  6 -> [ 33@0 ]  7 -> [ 33@0 ]  8 -> [ 33@0 ]  9 -> [ 33@0 ]  10 -> [ 33@0 ]  13 -> [ 33@0 ]  14 -> [ 33@0 ]  15 -> [ 33@0 ]  16 -> [ 33@0 ]  17 -> [ 33@0 ]  18 -> [ 33@0 ]  19 -> [ 33@0 ]  20 -> [ 33@0 ]  21 -> [ 33@0 ]  22 -> [ 33@0 ]  23 -> [ 33@0 ]  24 -> [ 33@0 ]  25 -> [ 33@0 ]  26 -> [ 33@0 ]  27 -> [ 33@0 ]  28 -> [ 33@0 ]  29 -> [ 33@0 ]  30 -> [ 33@0 ]  31 -> [ 33@0 ]  32 -> [ 20@0 21@0 ]  ], output requests = [ 20 -> [ 32@0 ]  21 -> [ 32@0 ]  33 -> [ 0@0 1@0 2@0 4@0 5@0 6@0 7@0 8@0 9@0 10@0 13@0 14@0 15@0 16@0 17@0 18@0 19@0 20@0 21@0 22@0 23@0 24@0 25@0 26@0 27@0 28@0 29@0 30@0 31@0 ]  ].
11 | network_0/router_15/vc_allocator | Input grants = [ 13 -> 33  32 -> 20  ], output grants = [ 20 -> 32  33 -> 13  ].
11 | network_0/router_15 | Assigning VC 0 at output 10 to VC 0 at input 16.
11 | network_0/router_15 | Completed VC allocation for VC 0 at input 16 (front: 1).
11 | network_0/router_15 |   Acquiring assigned VC 0 at output 10.
11 | network_0/router_15/buf_16/vc_0 | Changing state from vc_alloc to active.
11 | network_0/router_15 | Beginning switch allocation for VC 0 at input 16 (front: 1).
11 | network_0/router_15 |   Requesting output 10.0 (non-spec, pri: 0).
11 | network_0/router_15/sw_allocator | Input requests = [ 6 -> [ 16@0 ]  16 -> [ 10@0 ]  ], output requests = [ 10 -> [ 16@0 ]  16 -> [ 6@0 ]  ].
11 | network_0/router_15/sw_allocator | Input grants = [ 6 -> 16  16 -> 10  ], output grants = [ 10 -> 16  16 -> 6  ].
11 | network_0/router_15 | Assigning output 10.0 to VC 0 at input 16.0.
11 | network_0/router_15 | Completed switch allocation for VC 0 at input 16 (front: 1).
11 | network_0/router_15 |   Scheduling switch connection from input 16.0 to output 10.0.
12 | network_0/router_15 | Beginning crossbar traversal for flit 1 from input 16.0 to output 10.0.
12 | network_0/router_15 | Completed crossbar traversal for flit 1 from input 16.0 to output 10.0.
12 | network_0/router_15 | Buffering flit 1 at output 10.
12 | network_0/router_15 | Sending flit 1 to channel at output 10.
13 | network_0/network_0_fchan_egress250 | Beginning channel traversal for flit 1 with delay 1.
13 | network_0/network_0_fchan_egress250 | Completed channel traversal for flit 1.
14 | node250 | Ejecting flit 1 (packet 1) from VC 0.
14 | node250 | Injecting credit for VC 0 into subnet 0.
14 | node250 | Retiring flit 1 (packet 1, src = 5, dest = 250, hops = 2, flat = 14).
14 | node250 | Retiring packet 1 (plat = 14, nlat = 14, frag = 0, src = 5, dest = 250).
Class 0:
Packet latency average = 442.246
	minimum = 10
	maximum = 897
Network latency average = 378.393
	minimum = 10
	maximum = 543
Slowest packet = 6991
Flit latency average = 378.393
	minimum = 10
	maximum = 543
Slowest flit = 6991
Fragmentation average = 0
	minimum = 0
	maximum = 0
Injected packet rate average = 0.0958125
	minimum = 0.094 (at node 2)
	maximum = 0.098 (at node 34)
Accepted packet rate average = 0.061875
	minimum = 0.06 (at node 0)
	maximum = 0.064 (at node 27)
Injected flit rate average = 0.0958125
	minimum = 0.094 (at node 2)
	maximum = 0.098 (at node 34)
Accepted flit rate average= 0.061875
	minimum = 0.06 (at node 0)
	maximum = 0.064 (at node 27)
Injected packet length average = 1
Accepted packet length average = 1
Total in-flight flits = 8928 (0 measured)
latency change    = 1
throughput change = 1
Average latency for class 0 exceeded 500 cycles. Aborting simulation.
Too many sample periods needed to converge
Simulation unstable, ending ...
Total run time 2.27876
