BEGIN Configuration File: ../../booksim2/src/examples/flatflyconfig
// $Id$

// Copyright (c) 2007-2015, Trustees of The Leland Stanford Junior University
// All rights reserved.
//
// Redistribution and use in source and binary forms, with or without
// modification, are permitted provided that the following conditions are met:
//
// Redistributions of source code must retain the above copyright notice, this
// list of conditions and the following disclaimer.
// Redistributions in binary form must reproduce the above copyright notice,
// this list of conditions and the following disclaimer in the documentation
// and/or other materials provided with the distribution.
//
// THIS SOFTWARE IS PROVIDED BY THE COPYRIGHT HOLDERS AND CONTRIBUTORS "AS IS"
// AND ANY EXPRESS OR IMPLIED WARRANTIES, INCLUDING, BUT NOT LIMITED TO, THE
// IMPLIED WARRANTIES OF MERCHANTABILITY AND FITNESS FOR A PARTICULAR PURPOSE
// ARE DISCLAIMED. IN NO EVENT SHALL THE COPYRIGHT OWNER OR CONTRIBUTORS BE
// LIABLE FOR ANY DIRECT, INDIRECT, INCIDENTAL, SPECIAL, EXEMPLARY, OR
// CONSEQUENTIAL DAMAGES (INCLUDING, BUT NOT LIMITED TO, PROCUREMENT OF
// SUBSTITUTE GOODS OR SERVICES; LOSS OF USE, DATA, OR PROFITS; OR BUSINESS
// INTERRUPTION) HOWEVER CAUSED AND ON ANY THEORY OF LIABILITY, WHETHER IN
// CONTRACT, STRICT LIABILITY, OR TORT (INCLUDING NEGLIGENCE OR OTHERWISE)
// ARISING IN ANY WAY OUT OF THE USE OF THIS SOFTWARE, EVEN IF ADVISED OF THE
// POSSIBILITY OF SUCH DAMAGE.

//A flattened butterfly configurate file with many tweaks from the
//default settings. 


// Flow control
// Total number of VCs must match the above assignments
num_vcs     = 2;
vc_buf_size = 16;

wait_for_tail_credit = 0;

//
// Router architectureq
//
vc_allocator = islip; 
sw_allocator = islip;
alloc_iters  = 3;

credit_delay   = 0;
routing_delay  = 1;
vc_alloc_delay = 1;
sw_alloc_delay = 1;
st_final_delay = 1;

input_speedup     = 1;
output_speedup    = 1;
internal_speedup  = 1.6;

//
// Traffic
//

warmup_periods = 3;

sample_period  = 1000;  

sim_count          = 1;

traffic       = bitrev;


// Flatfly 
//
// #node = k^(n+1)
//
// x, y, specifies the arrangement of routers in x and y dim
// xr, yr specifiies the arayment of clients in a router
//
topology = flatfly;
subnets = 1;

c  = 16;
k  = 16;
n  = 1;

x  = 16;
y  = 1;
xr = 16;
yr = 1;

use_noc_latency = 0;

//
// Routing
//

routing_function = ran_min;

//1: batch mode, 0: injection mode
use_read_write = 0;

//for injection mode
packet_size = 1;
injection_rate = 0.1;

//for batch mode
read_request_size=1;
write_request_size=1;
read_reply_size=1;
write_reply_size=1;

read_request_begin_vc  = 0;
read_request_end_vc    = 3;
write_reply_begin_vc   = 4;
write_reply_end_vc     = 7;
read_reply_begin_vc    = 4;
read_reply_end_vc      = 7;
write_request_begin_vc = 0;
write_request_end_vc   = 3;

//latency: drains all packet, throughput:no drain?
sim_type = latency;

watch_out = -;;END Configuration File: ../../booksim2/src/examples/flatflyconfig
OVERRIDE Parameter: traffic=bitcomp
OVERRIDE Parameter: routing_function=ugal
OVERRIDE Parameter: injection_rate={0.3}
OVERRIDE Parameter: c=16
OVERRIDE Parameter: k=16
OVERRIDE Parameter: x=16
OVERRIDE Parameter: xr=16
OVERRIDE Parameter: sim_type=latency
OVERRIDE Parameter: seed=1
 Flat Bufferfly 
 k = 16 n = 1 c = 16
 each switch - total radix =  31
 # of switches = 16
 # of channels = 240
 # of nodes ( size of network ) = 256
0 | node2 | Enqueuing flit 1 (packet 1) at time 0.
0 | traffic_manager | Finding output VC for flit 1:
0 | traffic_manager |   Selected output VC 0.
0 | node2 | Injecting flit 1 into subnet 0 at time 0 with priority 0.
1 | network_0/network_0_fchan_ingress2 | Beginning channel traversal for flit 1 with delay 1.
1 | network_0/network_0_fchan_ingress2 | Completed channel traversal for flit 1.
2 | network_0/router_0 | Received flit 1 from channel at input 2.
2 | network_0/router_0 | Adding flit 1 to VC 0 at input 2 (state: idle, empty).
2 | network_0/router_0/buf_2/vc_0 | Changing state from idle to routing.
2 | network_0/router_0 | Beginning routing for VC 0 at input 2 (front: 1).
2 | network_0/router_0 | Completed routing for VC 0 at input 2 (front: 1).
2 | network_0/router_0 |  MIN tmp_out_port: 302 | network_0/router_0 |  NONMIN tmp_out_port: 19
2 | network_0/router_0/buf_2/vc_0 | Changing state from routing to vc_alloc.
3 | network_0/router_0 | Beginning VC allocation for VC 0 at input 2 (front: 1).
3 | network_0/router_0 |   Requesting VC 1 at output 30 (in_pri: 0, out_pri: 0).
3 | network_0/router_0/vc_allocator | Input requests = [ 2 -> [ 61@0 ]  4 -> [ 61@0 ]  8 -> [ 61@0 ]  10 -> [ 61@0 ]  12 -> [ 61@0 ]  20 -> [ 61@0 ]  26 -> [ 61@0 ]  ], output requests = [ 61 -> [ 2@0 4@0 8@0 10@0 12@0 20@0 26@0 ]  ].
3 | network_0/router_0/vc_allocator | Input grants = [ 2 -> 61  ], output grants = [ 61 -> 2  ].
3 | network_0/router_0 | VC allocation failed for VC 0 at input 2.
3 | network_0/router_0 | Completed VC allocation for VC 0 at input 2 (front: 1).
3 | network_0/router_0 |   No output VC allocated.
3 | network_0/router_0 | Beginning VC allocation for VC 0 at input 2 (front: 1).
3 | network_0/router_0 |   VC 1 at output 30 is in use by VC 0 at input 1 (front flit: 0).
3 | network_0/router_0 | Completed VC allocation for VC 0 at input 2 (front: 1).
3 | network_0/router_0 |   No output VC allocated.
4 | network_0/router_0 | Beginning VC allocation for VC 0 at input 2 (front: 1).
4 | network_0/router_0 |   Requesting VC 1 at output 30 (in_pri: 0, out_pri: 0).
4 | network_0/router_0/vc_allocator | Input requests = [ 4 -> [ 61@0 ]  8 -> [ 61@0 ]  9 -> [ 61@0 ]  10 -> [ 61@0 ]  11 -> [ 61@0 ]  12 -> [ 61@0 ]  13 -> [ 61@0 ]  20 -> [ 61@0 ]  21 -> [ 61@0 ]  26 -> [ 61@0 ]  27 -> [ 61@0 ]  ], output requests = [ 61 -> [ 4@0 8@0 9@0 10@0 11@0 12@0 13@0 20@0 21@0 26@0 27@0 ]  ].
4 | network_0/router_0/vc_allocator | Input grants = [ 4 -> 61  ], output grants = [ 61 -> 4  ].
4 | network_0/router_0 | Assigning VC 1 at output 30 to VC 0 at input 2.
4 | network_0/router_0 | Completed VC allocation for VC 0 at input 2 (front: 1).
4 | network_0/router_0 |   Acquiring assigned VC 1 at output 30.
4 | network_0/router_0/buf_2/vc_0 | Changing state from vc_alloc to active.
4 | network_0/router_0 | Beginning switch allocation for VC 0 at input 2 (front: 1).
4 | network_0/router_0 |   Requesting output 30.0 (non-spec, pri: 0).
4 | network_0/router_0/sw_allocator | Input requests = [ 2 -> [ 30@0 ]  ], output requests = [ 30 -> [ 2@0 ]  ].
4 | network_0/router_0/sw_allocator | Input grants = [ 2 -> 30  ], output grants = [ 30 -> 2  ].
4 | network_0/router_0 | Assigning output 30.0 to VC 0 at input 2.0.
4 | network_0/router_0 | Completed switch allocation for VC 0 at input 2 (front: 1).
4 | network_0/router_0 |   Scheduling switch connection from input 2.0 to output 30.0.
5 | network_0/router_0 | Beginning crossbar traversal for flit 1 from input 2.0 to output 30.0.
5 | network_0/router_0 | Completed crossbar traversal for flit 1 from input 2.0 to output 30.0.
5 | network_0/router_0 | Buffering flit 1 at output 30.
5 | network_0/router_0 | Sending flit 1 to channel at output 30.
6 | network_0/network_0_fchan_14 | Beginning channel traversal for flit 1 with delay 1.
6 | network_0/network_0_fchan_14 | Completed channel traversal for flit 1.
7 | network_0/router_15 | Received flit 1 from channel at input 16.
7 | network_0/router_15 | Adding flit 1 to VC 1 at input 16 (state: active, front: 0).
7 | network_0/router_15/buf_16/vc_1 | Changing state from active to routing.
8 | network_0/router_15 | Beginning routing for VC 1 at input 16 (front: 1).
8 | network_0/router_15 | Completed routing for VC 1 at input 16 (front: 1).
8 | network_0/router_15/buf_16/vc_1 | Changing state from routing to vc_alloc.
8 | network_0/router_15 | Beginning VC allocation for VC 1 at input 16 (front: 1).
8 | network_0/router_15 |   Requesting VC 0 at output 13 (in_pri: 0, out_pri: 0).
8 | network_0/router_15 |   Requesting VC 1 at output 13 (in_pri: 0, out_pri: 0).
8 | network_0/router_15/vc_allocator | Input requests = [ 4 -> [ 56@0 ]  10 -> [ 36@0 ]  33 -> [ 26@0 27@0 ]  42 -> [ 53@0 ]  58 -> [ 37@0 ]  ], output requests = [ 26 -> [ 33@0 ]  27 -> [ 33@0 ]  36 -> [ 10@0 ]  37 -> [ 58@0 ]  53 -> [ 42@0 ]  56 -> [ 4@0 ]  ].
8 | network_0/router_15/vc_allocator | Input grants = [ 4 -> 56  10 -> 36  33 -> 26  42 -> 53  58 -> 37  ], output grants = [ 26 -> 33  36 -> 10  37 -> 58  53 -> 42  56 -> 4  ].
8 | network_0/router_15 | Assigning VC 0 at output 13 to VC 1 at input 16.
8 | network_0/router_15 | Completed VC allocation for VC 1 at input 16 (front: 1).
8 | network_0/router_15 |   Acquiring assigned VC 0 at output 13.
8 | network_0/router_15/buf_16/vc_1 | Changing state from vc_alloc to active.
9 | network_0/router_15 | Beginning switch allocation for VC 1 at input 16 (front: 1).
9 | network_0/router_15 |   Requesting output 13.0 (non-spec, pri: 0).
9 | network_0/router_15/sw_allocator | Input requests = [ 2 -> [ 28@0 ]  5 -> [ 18@0 ]  16 -> [ 13@0 ]  21 -> [ 26@0 ]  29 -> [ 18@0 ]  ], output requests = [ 13 -> [ 16@0 ]  18 -> [ 5@0 29@0 ]  26 -> [ 21@0 ]  28 -> [ 2@0 ]  ].
9 | network_0/router_15/sw_allocator | Input grants = [ 2 -> 28  5 -> 18  16 -> 13  21 -> 26  ], output grants = [ 13 -> 16  18 -> 5  26 -> 21  28 -> 2  ].
9 | network_0/router_15 | Assigning output 13.0 to VC 1 at input 16.0.
9 | network_0/router_15 | Completed switch allocation for VC 1 at input 16 (front: 1).
9 | network_0/router_15 |   Scheduling switch connection from input 16.0 to output 13.0.
9 | network_0/router_15 | Beginning crossbar traversal for flit 1 from input 16.0 to output 13.0.
9 | network_0/router_15 | Completed crossbar traversal for flit 1 from input 16.0 to output 13.0.
9 | network_0/router_15 | Buffering flit 1 at output 13.
9 | network_0/router_15 | Sending flit 1 to channel at output 13.
10 | network_0/network_0_fchan_egress253 | Beginning channel traversal for flit 1 with delay 1.
10 | network_0/network_0_fchan_egress253 | Completed channel traversal for flit 1.
11 | node253 | Ejecting flit 1 (packet 1) from VC 0.
11 | node253 | Injecting credit for VC 0 into subnet 0.
11 | node253 | Retiring flit 1 (packet 1, src = 2, dest = 253, hops = 2, flat = 11).
11 | node253 | Retiring packet 1 (plat = 11, nlat = 11, frag = 0, src = 2, dest = 253).
Class 0:
Packet latency average = 80.5286
	minimum = 10
	maximum = 446
Network latency average = 72.733
	minimum = 10
	maximum = 416
Slowest packet = 28699
Flit latency average = 72.733
	minimum = 10
	maximum = 416
Slowest flit = 28699
Fragmentation average = 0
	minimum = 0
	maximum = 0
Injected packet rate average = 0.282266
	minimum = 0.221 (at node 68)
	maximum = 0.336 (at node 174)
Accepted packet rate average = 0.251434
	minimum = 0.185 (at node 187)
	maximum = 0.309 (at node 81)
Injected flit rate average = 0.282266
	minimum = 0.221 (at node 68)
	maximum = 0.336 (at node 174)
Accepted flit rate average= 0.251434
	minimum = 0.185 (at node 187)
	maximum = 0.309 (at node 81)
Injected packet length average = 1
Accepted packet length average = 1
Total in-flight flits = 8036 (0 measured)
latency change    = 1
throughput change = 1
Class 0:
Packet latency average = 160.24
	minimum = 10
	maximum = 774
Network latency average = 101.636
	minimum = 10
	maximum = 559
Slowest packet = 28699
Flit latency average = 101.636
	minimum = 10
	maximum = 559
Slowest flit = 74693
Fragmentation average = 0
	minimum = 0
	maximum = 0
Injected packet rate average = 0.267486
	minimum = 0.2105 (at node 66)
	maximum = 0.3115 (at node 130)
Accepted packet rate average = 0.250395
	minimum = 0.1945 (at node 189)
	maximum = 0.3065 (at node 240)
Injected flit rate average = 0.267486
	minimum = 0.2105 (at node 66)
	maximum = 0.3115 (at node 130)
Accepted flit rate average= 0.250395
	minimum = 0.1945 (at node 189)
	maximum = 0.3065 (at node 240)
Injected packet length average = 1
Accepted packet length average = 1
Total in-flight flits = 8943 (0 measured)
latency change    = 0.497449
throughput change = 0.0041497
Class 0:
Packet latency average = 418.04
	minimum = 13
	maximum = 1134
Network latency average = 141.424
	minimum = 13
	maximum = 579
Slowest packet = 134137
Flit latency average = 141.424
	minimum = 13
	maximum = 579
Slowest flit = 159931
Fragmentation average = 0
	minimum = 0
	maximum = 0
Injected packet rate average = 0.245812
	minimum = 0.164 (at node 145)
	maximum = 0.353 (at node 32)
Accepted packet rate average = 0.245062
	minimum = 0.165 (at node 203)
	maximum = 0.35 (at node 223)
Injected flit rate average = 0.245812
	minimum = 0.164 (at node 145)
	maximum = 0.353 (at node 32)
Accepted flit rate average= 0.245062
	minimum = 0.165 (at node 203)
	maximum = 0.35 (at node 223)
Injected packet length average = 1
Accepted packet length average = 1
Total in-flight flits = 9154 (0 measured)
latency change    = 0.616688
throughput change = 0.0217578
Warmed up ...Time used is 3000 cycles
Class 0:
Packet latency average = 598.661
	minimum = 13
	maximum = 1410
Network latency average = 134.456
	minimum = 13
	maximum = 569
Slowest packet = 200197
Flit latency average = 141.282
	minimum = 13
	maximum = 638
Slowest flit = 160118
Fragmentation average = 0
	minimum = 0
	maximum = 0
Injected packet rate average = 0.247781
	minimum = 0.157 (at node 46)
	maximum = 0.352 (at node 88)
Accepted packet rate average = 0.247797
	minimum = 0.161 (at node 101)
	maximum = 0.351 (at node 167)
Injected flit rate average = 0.247781
	minimum = 0.157 (at node 46)
	maximum = 0.352 (at node 88)
Accepted flit rate average= 0.247797
	minimum = 0.161 (at node 101)
	maximum = 0.351 (at node 167)
Injected packet length average = 1
Accepted packet length average = 1
Total in-flight flits = 9141 (9141 measured)
latency change    = 0.301709
throughput change = 0.0110347
Average latency for class 0 exceeded 500 cycles. Aborting simulation.
Too many sample periods needed to converge
Simulation unstable, ending ...
Total run time 14.1657
