BEGIN Configuration File: ../../booksim2/src/examples/flatflyconfig
// $Id$

// Copyright (c) 2007-2015, Trustees of The Leland Stanford Junior University
// All rights reserved.
//
// Redistribution and use in source and binary forms, with or without
// modification, are permitted provided that the following conditions are met:
//
// Redistributions of source code must retain the above copyright notice, this
// list of conditions and the following disclaimer.
// Redistributions in binary form must reproduce the above copyright notice,
// this list of conditions and the following disclaimer in the documentation
// and/or other materials provided with the distribution.
//
// THIS SOFTWARE IS PROVIDED BY THE COPYRIGHT HOLDERS AND CONTRIBUTORS "AS IS"
// AND ANY EXPRESS OR IMPLIED WARRANTIES, INCLUDING, BUT NOT LIMITED TO, THE
// IMPLIED WARRANTIES OF MERCHANTABILITY AND FITNESS FOR A PARTICULAR PURPOSE
// ARE DISCLAIMED. IN NO EVENT SHALL THE COPYRIGHT OWNER OR CONTRIBUTORS BE
// LIABLE FOR ANY DIRECT, INDIRECT, INCIDENTAL, SPECIAL, EXEMPLARY, OR
// CONSEQUENTIAL DAMAGES (INCLUDING, BUT NOT LIMITED TO, PROCUREMENT OF
// SUBSTITUTE GOODS OR SERVICES; LOSS OF USE, DATA, OR PROFITS; OR BUSINESS
// INTERRUPTION) HOWEVER CAUSED AND ON ANY THEORY OF LIABILITY, WHETHER IN
// CONTRACT, STRICT LIABILITY, OR TORT (INCLUDING NEGLIGENCE OR OTHERWISE)
// ARISING IN ANY WAY OUT OF THE USE OF THIS SOFTWARE, EVEN IF ADVISED OF THE
// POSSIBILITY OF SUCH DAMAGE.

//A flattened butterfly configurate file with many tweaks from the
//default settings. 


// Flow control
// Total number of VCs must match the above assignments
num_vcs     = 2;
vc_buf_size = 16;

wait_for_tail_credit = 0;

//
// Router architectureq
//
vc_allocator = islip; 
sw_allocator = islip;
alloc_iters  = 3;

credit_delay   = 0;
routing_delay  = 1;
vc_alloc_delay = 1;
sw_alloc_delay = 1;
st_final_delay = 1;

input_speedup     = 1;
output_speedup    = 1;
internal_speedup  = 1.6;

//
// Traffic
//

warmup_periods = 3;

sample_period  = 1000;  

sim_count          = 1;

traffic       = bitrev;


// Flatfly 
//
// #node = k^(n+1)
//
// x, y, specifies the arrangement of routers in x and y dim
// xr, yr specifiies the arayment of clients in a router
//
topology = flatfly;
subnets = 1;

c  = 16;
k  = 16;
n  = 1;

x  = 16;
y  = 1;
xr = 16;
yr = 1;

use_noc_latency = 0;

//
// Routing
//

routing_function = ran_min;

//1: batch mode, 0: injection mode
use_read_write = 0;

//for injection mode
packet_size = 1;
injection_rate = 0.1;

//for batch mode
read_request_size=1;
write_request_size=1;
read_reply_size=1;
write_reply_size=1;

read_request_begin_vc  = 0;
read_request_end_vc    = 3;
write_reply_begin_vc   = 4;
write_reply_end_vc     = 7;
read_reply_begin_vc    = 4;
read_reply_end_vc      = 7;
write_request_begin_vc = 0;
write_request_end_vc   = 3;

//latency: drains all packet, throughput:no drain?
sim_type = latency;

watch_out = -;

END Configuration File: ../../booksim2/src/examples/flatflyconfig
OVERRIDE Parameter: traffic=bitcomp
OVERRIDE Parameter: injection_rate={0.05}
OVERRIDE Parameter: c=16
OVERRIDE Parameter: k=16
OVERRIDE Parameter: x=16
OVERRIDE Parameter: xr=16
OVERRIDE Parameter: sim_type=throughput
 Flat Bufferfly 
 k = 16 n = 1 c = 16
 each switch - total radix =  31
 # of switches = 16
 # of channels = 240
 # of nodes ( size of network ) = 256
0 | node77 | Enqueuing flit 1 (packet 1) at time 0.
0 | traffic_manager | Finding output VC for flit 1:
0 | traffic_manager |   Selected output VC 0.
0 | node77 | Injecting flit 1 into subnet 0 at time 0 with priority 0.
1 | network_0/network_0_fchan_ingress77 | Beginning channel traversal for flit 1 with delay 1.
1 | network_0/network_0_fchan_ingress77 | Completed channel traversal for flit 1.
2 | network_0/router_4 | Received flit 1 from channel at input 13.
2 | network_0/router_4 | Adding flit 1 to VC 0 at input 13 (state: idle, empty).
2 | network_0/router_4/buf_13/vc_0 | Changing state from idle to routing.
2 | network_0/router_4 | Beginning routing for VC 0 at input 13 (front: 1).
2 | network_0/router_4 | Completed routing for VC 0 at input 13 (front: 1).
2 | network_0/router_4/buf_13/vc_0 | Changing state from routing to vc_alloc.
3 | network_0/router_4 | Beginning VC allocation for VC 0 at input 13 (front: 1).
3 | network_0/router_4 |   Requesting VC 0 at output 26 (in_pri: 0, out_pri: 0).
3 | network_0/router_4 |   Requesting VC 1 at output 26 (in_pri: 0, out_pri: 0).
3 | network_0/router_4/vc_allocator | Input requests = [ 26 -> [ 52@0 53@0 ]  ], output requests = [ 52 -> [ 26@0 ]  53 -> [ 26@0 ]  ].
3 | network_0/router_4/vc_allocator | Input grants = [ 26 -> 52  ], output grants = [ 52 -> 26  ].
3 | network_0/router_4 | Assigning VC 0 at output 26 to VC 0 at input 13.
3 | network_0/router_4 | Completed VC allocation for VC 0 at input 13 (front: 1).
3 | network_0/router_4 |   Acquiring assigned VC 0 at output 26.
3 | network_0/router_4/buf_13/vc_0 | Changing state from vc_alloc to active.
3 | network_0/router_4 | Beginning switch allocation for VC 0 at input 13 (front: 1).
3 | network_0/router_4 |   Requesting output 26.0 (non-spec, pri: 0).
3 | network_0/router_4/sw_allocator | Input requests = [ 13 -> [ 26@0 ]  ], output requests = [ 26 -> [ 13@0 ]  ].
3 | network_0/router_4/sw_allocator | Input grants = [ 13 -> 26  ], output grants = [ 26 -> 13  ].
3 | network_0/router_4 | Assigning output 26.0 to VC 0 at input 13.0.
3 | network_0/router_4 | Completed switch allocation for VC 0 at input 13 (front: 1).
3 | network_0/router_4 |   Scheduling switch connection from input 13.0 to output 26.0.
4 | network_0/router_4 | Beginning crossbar traversal for flit 1 from input 13.0 to output 26.0.
4 | network_0/router_4 | Completed crossbar traversal for flit 1 from input 13.0 to output 26.0.
4 | network_0/router_4 | Buffering flit 1 at output 26.
4 | network_0/router_4 | Sending flit 1 to channel at output 26.
5 | network_0/network_0_fchan_70 | Beginning channel traversal for flit 1 with delay 1.
5 | network_0/network_0_fchan_70 | Completed channel traversal for flit 1.
6 | network_0/router_11 | Received flit 1 from channel at input 20.
6 | network_0/router_11 | Adding flit 1 to VC 0 at input 20 (state: idle, empty).
6 | network_0/router_11/buf_20/vc_0 | Changing state from idle to routing.
6 | network_0/router_11 | Beginning routing for VC 0 at input 20 (front: 1).
6 | network_0/router_11 | Completed routing for VC 0 at input 20 (front: 1).
6 | network_0/router_11/buf_20/vc_0 | Changing state from routing to vc_alloc.
6 | network_0/router_11 | Beginning VC allocation for VC 0 at input 20 (front: 1).
6 | network_0/router_11 |   Requesting VC 0 at output 2 (in_pri: 0, out_pri: 0).
6 | network_0/router_11 |   Requesting VC 1 at output 2 (in_pri: 0, out_pri: 0).
6 | network_0/router_11/vc_allocator | Input requests = [ 6 -> [ 40@0 41@0 ]  40 -> [ 4@0 5@0 ]  ], output requests = [ 4 -> [ 40@0 ]  5 -> [ 40@0 ]  40 -> [ 6@0 ]  41 -> [ 6@0 ]  ].
6 | network_0/router_11/vc_allocator | Input grants = [ 6 -> 40  40 -> 4  ], output grants = [ 4 -> 40  40 -> 6  ].
6 | network_0/router_11 | Assigning VC 0 at output 2 to VC 0 at input 20.
6 | network_0/router_11 | Completed VC allocation for VC 0 at input 20 (front: 1).
6 | network_0/router_11 |   Acquiring assigned VC 0 at output 2.
6 | network_0/router_11/buf_20/vc_0 | Changing state from vc_alloc to active.
7 | network_0/router_11 | Beginning switch allocation for VC 0 at input 20 (front: 1).
7 | network_0/router_11 |   Requesting output 2.0 (non-spec, pri: 0).
7 | network_0/router_11/sw_allocator | Input requests = [ 3 -> [ 20@0 ]  20 -> [ 2@0 ]  ], output requests = [ 2 -> [ 20@0 ]  20 -> [ 3@0 ]  ].
7 | network_0/router_11/sw_allocator | Input grants = [ 3 -> 20  20 -> 2  ], output grants = [ 2 -> 20  20 -> 3  ].
7 | network_0/router_11 | Assigning output 2.0 to VC 0 at input 20.0.
7 | network_0/router_11 | Completed switch allocation for VC 0 at input 20 (front: 1).
7 | network_0/router_11 |   Scheduling switch connection from input 20.0 to output 2.0.
8 | network_0/router_11 | Beginning crossbar traversal for flit 1 from input 20.0 to output 2.0.
8 | network_0/router_11 | Completed crossbar traversal for flit 1 from input 20.0 to output 2.0.
8 | network_0/router_11 | Buffering flit 1 at output 2.
8 | network_0/router_11 | Sending flit 1 to channel at output 2.
9 | network_0/network_0_fchan_egress178 | Beginning channel traversal for flit 1 with delay 1.
9 | network_0/network_0_fchan_egress178 | Completed channel traversal for flit 1.
10 | node178 | Ejecting flit 1 (packet 1) from VC 0.
10 | node178 | Injecting credit for VC 0 into subnet 0.
10 | node178 | Retiring flit 1 (packet 1, src = 77, dest = 178, hops = 2, flat = 10).
10 | node178 | Retiring packet 1 (plat = 10, nlat = 10, frag = 0, src = 77, dest = 178).
Class 0:
Packet latency average = 12.071
	minimum = 9
	maximum = 28
Network latency average = 12.071
	minimum = 9
	maximum = 28
Slowest packet = 11597
Flit latency average = 12.071
	minimum = 9
	maximum = 28
Slowest flit = 11597
Fragmentation average = 0
	minimum = 0
	maximum = 0
Injected packet rate average = 0.0500859
	minimum = 0.032 (at node 166)
	maximum = 0.07 (at node 47)
Accepted packet rate average = 0.0494883
	minimum = 0.032 (at node 89)
	maximum = 0.07 (at node 208)
Injected flit rate average = 0.0500859
	minimum = 0.032 (at node 166)
	maximum = 0.07 (at node 47)
Accepted flit rate average= 0.0494883
	minimum = 0.032 (at node 89)
	maximum = 0.07 (at node 208)
Injected packet length average = 1
Accepted packet length average = 1
Total in-flight flits = 153 (0 measured)
latency change    = 1
throughput change = 1
Class 0:
Packet latency average = 12.0864
	minimum = 9
	maximum = 28
Network latency average = 12.0864
	minimum = 9
	maximum = 28
Slowest packet = 11597
Flit latency average = 12.0864
	minimum = 9
	maximum = 28
Slowest flit = 11597
Fragmentation average = 0
	minimum = 0
	maximum = 0
Injected packet rate average = 0.0499551
	minimum = 0.039 (at node 9)
	maximum = 0.065 (at node 135)
Accepted packet rate average = 0.0496113
	minimum = 0.038 (at node 59)
	maximum = 0.065 (at node 120)
Injected flit rate average = 0.0499551
	minimum = 0.039 (at node 9)
	maximum = 0.065 (at node 135)
Accepted flit rate average= 0.0496113
	minimum = 0.038 (at node 59)
	maximum = 0.065 (at node 120)
Injected packet length average = 1
Accepted packet length average = 1
Total in-flight flits = 176 (0 measured)
latency change    = 0.00127857
throughput change = 0.00248022
Class 0:
Packet latency average = 12.1146
	minimum = 9
	maximum = 26
Network latency average = 12.1146
	minimum = 9
	maximum = 26
Slowest packet = 31418
Flit latency average = 12.1146
	minimum = 9
	maximum = 26
Slowest flit = 31418
Fragmentation average = 0
	minimum = 0
	maximum = 0
Injected packet rate average = 0.0504062
	minimum = 0.035 (at node 27)
	maximum = 0.071 (at node 78)
Accepted packet rate average = 0.0504375
	minimum = 0.035 (at node 228)
	maximum = 0.07 (at node 168)
Injected flit rate average = 0.0504062
	minimum = 0.035 (at node 27)
	maximum = 0.071 (at node 78)
Accepted flit rate average= 0.0504375
	minimum = 0.035 (at node 228)
	maximum = 0.07 (at node 168)
Injected packet length average = 1
Accepted packet length average = 1
Total in-flight flits = 168 (0 measured)
latency change    = 0.00232844
throughput change = 0.0163801
Warmed up ...Time used is 3000 cycles
Class 0:
Packet latency average = 12.2037
	minimum = 9
	maximum = 32
Network latency average = 12.2037
	minimum = 9
	maximum = 32
Slowest packet = 41692
Flit latency average = 12.2156
	minimum = 9
	maximum = 32
Slowest flit = 41692
Fragmentation average = 0
	minimum = 0
	maximum = 0
Injected packet rate average = 0.0499531
	minimum = 0.029 (at node 92)
	maximum = 0.073 (at node 165)
Accepted packet rate average = 0.0499219
	minimum = 0.029 (at node 53)
	maximum = 0.073 (at node 90)
Injected flit rate average = 0.0499531
	minimum = 0.029 (at node 92)
	maximum = 0.073 (at node 165)
Accepted flit rate average= 0.0499219
	minimum = 0.029 (at node 53)
	maximum = 0.073 (at node 90)
Injected packet length average = 1
Accepted packet length average = 1
Total in-flight flits = 176 (176 measured)
latency change    = 0.00729884
throughput change = 0.0103286
Class 0:
Packet latency average = 12.0761
	minimum = 9
	maximum = 32
Network latency average = 12.0761
	minimum = 9
	maximum = 32
Slowest packet = 41692
Flit latency average = 12.0829
	minimum = 9
	maximum = 32
Slowest flit = 41692
Fragmentation average = 0
	minimum = 0
	maximum = 0
Injected packet rate average = 0.049959
	minimum = 0.0345 (at node 195)
	maximum = 0.0635 (at node 165)
Accepted packet rate average = 0.0499707
	minimum = 0.035 (at node 60)
	maximum = 0.063 (at node 90)
Injected flit rate average = 0.049959
	minimum = 0.0345 (at node 195)
	maximum = 0.0635 (at node 165)
Accepted flit rate average= 0.0499707
	minimum = 0.035 (at node 60)
	maximum = 0.063 (at node 90)
Injected packet length average = 1
Accepted packet length average = 1
Total in-flight flits = 162 (162 measured)
latency change    = 0.01057
throughput change = 0.000977135
Class 0:
Packet latency average = 12.104
	minimum = 9
	maximum = 32
Network latency average = 12.104
	minimum = 9
	maximum = 32
Slowest packet = 41692
Flit latency average = 12.1084
	minimum = 9
	maximum = 32
Slowest flit = 41692
Fragmentation average = 0
	minimum = 0
	maximum = 0
Injected packet rate average = 0.0501523
	minimum = 0.0386667 (at node 92)
	maximum = 0.0596667 (at node 102)
Accepted packet rate average = 0.0501693
	minimum = 0.0386667 (at node 163)
	maximum = 0.0596667 (at node 153)
Injected flit rate average = 0.0501523
	minimum = 0.0386667 (at node 92)
	maximum = 0.0596667 (at node 102)
Accepted flit rate average= 0.0501693
	minimum = 0.0386667 (at node 163)
	maximum = 0.0596667 (at node 153)
Injected packet length average = 1
Accepted packet length average = 1
Total in-flight flits = 155 (155 measured)
latency change    = 0.00230764
throughput change = 0.00395795
Draining remaining packets ...
Time taken is 6017 cycles
====== Overall Traffic Statistics ======
====== Traffic class 0 ======
Packet latency average = 12.1043 (1 samples)
	minimum = 9 (1 samples)
	maximum = 32 (1 samples)
Network latency average = 12.1043 (1 samples)
	minimum = 9 (1 samples)
	maximum = 32 (1 samples)
Flit latency average = 12.1087 (1 samples)
	minimum = 9 (1 samples)
	maximum = 32 (1 samples)
Fragmentation average = 0 (1 samples)
	minimum = 0 (1 samples)
	maximum = 0 (1 samples)
Injected packet rate average = 0.0501523 (1 samples)
	minimum = 0.0386667 (1 samples)
	maximum = 0.0596667 (1 samples)
Accepted packet rate average = 0.0501693 (1 samples)
	minimum = 0.0386667 (1 samples)
	maximum = 0.0596667 (1 samples)
Injected flit rate average = 0.0501523 (1 samples)
	minimum = 0.0386667 (1 samples)
	maximum = 0.0596667 (1 samples)
Accepted flit rate average = 0.0501693 (1 samples)
	minimum = 0.0386667 (1 samples)
	maximum = 0.0596667 (1 samples)
Injected packet size average = 1 (1 samples)
Accepted packet size average = 1 (1 samples)
Hops average = 2 (1 samples)
Total run time 6.53083
