BEGIN Configuration File: ../../booksim2/src/examples/flatflyconfig
// $Id$

// Copyright (c) 2007-2015, Trustees of The Leland Stanford Junior University
// All rights reserved.
//
// Redistribution and use in source and binary forms, with or without
// modification, are permitted provided that the following conditions are met:
//
// Redistributions of source code must retain the above copyright notice, this
// list of conditions and the following disclaimer.
// Redistributions in binary form must reproduce the above copyright notice,
// this list of conditions and the following disclaimer in the documentation
// and/or other materials provided with the distribution.
//
// THIS SOFTWARE IS PROVIDED BY THE COPYRIGHT HOLDERS AND CONTRIBUTORS "AS IS"
// AND ANY EXPRESS OR IMPLIED WARRANTIES, INCLUDING, BUT NOT LIMITED TO, THE
// IMPLIED WARRANTIES OF MERCHANTABILITY AND FITNESS FOR A PARTICULAR PURPOSE
// ARE DISCLAIMED. IN NO EVENT SHALL THE COPYRIGHT OWNER OR CONTRIBUTORS BE
// LIABLE FOR ANY DIRECT, INDIRECT, INCIDENTAL, SPECIAL, EXEMPLARY, OR
// CONSEQUENTIAL DAMAGES (INCLUDING, BUT NOT LIMITED TO, PROCUREMENT OF
// SUBSTITUTE GOODS OR SERVICES; LOSS OF USE, DATA, OR PROFITS; OR BUSINESS
// INTERRUPTION) HOWEVER CAUSED AND ON ANY THEORY OF LIABILITY, WHETHER IN
// CONTRACT, STRICT LIABILITY, OR TORT (INCLUDING NEGLIGENCE OR OTHERWISE)
// ARISING IN ANY WAY OUT OF THE USE OF THIS SOFTWARE, EVEN IF ADVISED OF THE
// POSSIBILITY OF SUCH DAMAGE.

//A flattened butterfly configurate file with many tweaks from the
//default settings. 


// Flow control
// Total number of VCs must match the above assignments
num_vcs     = 2;
vc_buf_size = 16;

wait_for_tail_credit = 0;

//
// Router architectureq
//
vc_allocator = islip; 
sw_allocator = islip;
alloc_iters  = 3;

credit_delay   = 0;
routing_delay  = 1;
vc_alloc_delay = 1;
sw_alloc_delay = 1;
st_final_delay = 1;

input_speedup     = 1;
output_speedup    = 1;
internal_speedup  = 1.6;

//
// Traffic
//

warmup_periods = 3;

sample_period  = 1000;  

sim_count          = 1;

traffic       = bitrev;


// Flatfly 
//
// #node = k^(n+1)
//
// x, y, specifies the arrangement of routers in x and y dim
// xr, yr specifiies the arayment of clients in a router
//
topology = flatfly;
subnets = 1;

c  = 16;
k  = 16;
n  = 1;

x  = 16;
y  = 1;
xr = 16;
yr = 1;

use_noc_latency = 0;

//
// Routing
//

routing_function = ran_min;

//1: batch mode, 0: injection mode
use_read_write = 0;

//for injection mode
packet_size = 1;
injection_rate = 0.1;

//for batch mode
read_request_size=1;
write_request_size=1;
read_reply_size=1;
write_reply_size=1;

read_request_begin_vc  = 0;
read_request_end_vc    = 3;
write_reply_begin_vc   = 4;
write_reply_end_vc     = 7;
read_reply_begin_vc    = 4;
read_reply_end_vc      = 7;
write_request_begin_vc = 0;
write_request_end_vc   = 3;

//latency: drains all packet, throughput:no drain?
sim_type = latency;

watch_out = -;

END Configuration File: ../../booksim2/src/examples/flatflyconfig
OVERRIDE Parameter: traffic=bitcomp
OVERRIDE Parameter: injection_rate={0.7}
OVERRIDE Parameter: c=16
OVERRIDE Parameter: k=16
OVERRIDE Parameter: x=16
OVERRIDE Parameter: xr=16
OVERRIDE Parameter: sim_type=throughput
 Flat Bufferfly 
 k = 16 n = 1 c = 16
 each switch - total radix =  31
 # of switches = 16
 # of channels = 240
 # of nodes ( size of network ) = 256
0 | node3 | Enqueuing flit 1 (packet 1) at time 0.
0 | traffic_manager | Finding output VC for flit 1:
0 | traffic_manager |   Selected output VC 0.
0 | node3 | Injecting flit 1 into subnet 0 at time 0 with priority 0.
1 | network_0/network_0_fchan_ingress3 | Beginning channel traversal for flit 1 with delay 1.
1 | network_0/network_0_fchan_ingress3 | Completed channel traversal for flit 1.
2 | network_0/router_0 | Received flit 1 from channel at input 3.
2 | network_0/router_0 | Adding flit 1 to VC 0 at input 3 (state: idle, empty).
2 | network_0/router_0/buf_3/vc_0 | Changing state from idle to routing.
2 | network_0/router_0 | Beginning routing for VC 0 at input 3 (front: 1).
2 | network_0/router_0 | Completed routing for VC 0 at input 3 (front: 1).
2 | network_0/router_0/buf_3/vc_0 | Changing state from routing to vc_alloc.
3 | network_0/router_0 | Beginning VC allocation for VC 0 at input 3 (front: 1).
3 | network_0/router_0 |   Requesting VC 0 at output 30 (in_pri: 0, out_pri: 0).
3 | network_0/router_0 |   Requesting VC 1 at output 30 (in_pri: 0, out_pri: 0).
3 | network_0/router_0/vc_allocator | Input requests = [ 2 -> [ 60@0 61@0 ]  6 -> [ 60@0 61@0 ]  8 -> [ 60@0 61@0 ]  10 -> [ 60@0 61@0 ]  16 -> [ 60@0 61@0 ]  18 -> [ 60@0 61@0 ]  22 -> [ 60@0 61@0 ]  24 -> [ 60@0 61@0 ]  26 -> [ 60@0 61@0 ]  28 -> [ 60@0 61@0 ]  30 -> [ 60@0 61@0 ]  ], output requests = [ 60 -> [ 2@0 6@0 8@0 10@0 16@0 18@0 22@0 24@0 26@0 28@0 30@0 ]  61 -> [ 2@0 6@0 8@0 10@0 16@0 18@0 22@0 24@0 26@0 28@0 30@0 ]  ].
3 | network_0/router_0/vc_allocator | Input grants = [ 2 -> 60  ], output grants = [ 60 -> 2  ].
3 | network_0/router_0 | VC allocation failed for VC 0 at input 3.
3 | network_0/router_0 | Completed VC allocation for VC 0 at input 3 (front: 1).
3 | network_0/router_0 |   No output VC allocated.
3 | network_0/router_0 | Beginning VC allocation for VC 0 at input 3 (front: 1).
3 | network_0/router_0 |   VC 0 at output 30 is in use by VC 0 at input 1 (front flit: 0).
3 | network_0/router_0 |   Requesting VC 1 at output 30 (in_pri: 0, out_pri: 0).
3 | network_0/router_0/vc_allocator | Input requests = [ 0 -> [ 61@0 ]  3 -> [ 61@0 ]  6 -> [ 61@0 ]  7 -> [ 61@0 ]  8 -> [ 61@0 ]  9 -> [ 61@0 ]  10 -> [ 61@0 ]  11 -> [ 61@0 ]  12 -> [ 61@0 ]  14 -> [ 61@0 ]  16 -> [ 61@0 ]  17 -> [ 61@0 ]  18 -> [ 61@0 ]  19 -> [ 61@0 ]  22 -> [ 61@0 ]  23 -> [ 61@0 ]  24 -> [ 61@0 ]  25 -> [ 61@0 ]  26 -> [ 61@0 ]  27 -> [ 61@0 ]  28 -> [ 61@0 ]  29 -> [ 61@0 ]  30 -> [ 61@0 ]  31 -> [ 61@0 ]  ], output requests = [ 61 -> [ 0@0 3@0 6@0 7@0 8@0 9@0 10@0 11@0 12@0 14@0 16@0 17@0 18@0 19@0 22@0 23@0 24@0 25@0 26@0 27@0 28@0 29@0 30@0 31@0 ]  ].
3 | network_0/router_0/vc_allocator | Input grants = [ 0 -> 61  ], output grants = [ 61 -> 0  ].
3 | network_0/router_0 | VC allocation failed for VC 0 at input 3.
3 | network_0/router_0 | Completed VC allocation for VC 0 at input 3 (front: 1).
3 | network_0/router_0 |   No output VC allocated.
4 | network_0/router_0 | Beginning VC allocation for VC 0 at input 3 (front: 1).
4 | network_0/router_0 |   Requesting VC 0 at output 30 (in_pri: 0, out_pri: 0).
4 | network_0/router_0 |   VC 1 at output 30 is in use by VC 0 at input 0 (front flit: 163).
4 | network_0/router_0/vc_allocator | Input requests = [ 3 -> [ 60@0 ]  6 -> [ 60@0 ]  7 -> [ 60@0 ]  8 -> [ 60@0 ]  9 -> [ 60@0 ]  10 -> [ 60@0 ]  11 -> [ 60@0 ]  12 -> [ 60@0 ]  14 -> [ 60@0 ]  16 -> [ 60@0 ]  17 -> [ 60@0 ]  18 -> [ 60@0 ]  19 -> [ 60@0 ]  22 -> [ 60@0 ]  23 -> [ 60@0 ]  24 -> [ 60@0 ]  25 -> [ 60@0 ]  26 -> [ 60@0 ]  27 -> [ 60@0 ]  28 -> [ 60@0 ]  29 -> [ 60@0 ]  30 -> [ 60@0 ]  31 -> [ 60@0 ]  ], output requests = [ 60 -> [ 3@0 6@0 7@0 8@0 9@0 10@0 11@0 12@0 14@0 16@0 17@0 18@0 19@0 22@0 23@0 24@0 25@0 26@0 27@0 28@0 29@0 30@0 31@0 ]  ].
4 | network_0/router_0/vc_allocator | Input grants = [ 3 -> 60  ], output grants = [ 60 -> 3  ].
4 | network_0/router_0 | VC allocation failed for VC 0 at input 3.
4 | network_0/router_0 | Completed VC allocation for VC 0 at input 3 (front: 1).
4 | network_0/router_0 |   No output VC allocated.
4 | network_0/router_0 | Beginning VC allocation for VC 0 at input 3 (front: 1).
4 | network_0/router_0 |   VC 0 at output 30 is in use by VC 1 at input 1 (front flit: 164).
4 | network_0/router_0 |   Requesting VC 1 at output 30 (in_pri: 0, out_pri: 0).
4 | network_0/router_0/vc_allocator | Input requests = [ 1 -> [ 61@0 ]  2 -> [ 61@0 ]  4 -> [ 61@0 ]  6 -> [ 61@0 ]  7 -> [ 61@0 ]  8 -> [ 61@0 ]  9 -> [ 61@0 ]  10 -> [ 61@0 ]  11 -> [ 61@0 ]  12 -> [ 61@0 ]  13 -> [ 61@0 ]  14 -> [ 61@0 ]  15 -> [ 61@0 ]  16 -> [ 61@0 ]  17 -> [ 61@0 ]  18 -> [ 61@0 ]  19 -> [ 61@0 ]  20 -> [ 61@0 ]  22 -> [ 61@0 ]  23 -> [ 61@0 ]  24 -> [ 61@0 ]  25 -> [ 61@0 ]  26 -> [ 61@0 ]  27 -> [ 61@0 ]  28 -> [ 61@0 ]  29 -> [ 61@0 ]  30 -> [ 61@0 ]  31 -> [ 61@0 ]  ], output requests = [ 61 -> [ 1@0 2@0 4@0 6@0 7@0 8@0 9@0 10@0 11@0 12@0 13@0 14@0 15@0 16@0 17@0 18@0 19@0 20@0 22@0 23@0 24@0 25@0 26@0 27@0 28@0 29@0 30@0 31@0 ]  ].
4 | network_0/router_0/vc_allocator | Input grants = [ 1 -> 61  ], output grants = [ 61 -> 1  ].
4 | network_0/router_0 | VC allocation failed for VC 0 at input 3.
4 | network_0/router_0 | Completed VC allocation for VC 0 at input 3 (front: 1).
4 | network_0/router_0 |   No output VC allocated.
5 | network_0/router_0 | Beginning VC allocation for VC 0 at input 3 (front: 1).
5 | network_0/router_0 |   Requesting VC 0 at output 30 (in_pri: 0, out_pri: 0).
5 | network_0/router_0 |   VC 1 at output 30 is in use by VC 1 at input 0 (front flit: 355).
5 | network_0/router_0/vc_allocator | Input requests = [ 2 -> [ 60@0 ]  4 -> [ 60@0 ]  6 -> [ 60@0 ]  7 -> [ 60@0 ]  8 -> [ 60@0 ]  9 -> [ 60@0 ]  10 -> [ 60@0 ]  11 -> [ 60@0 ]  12 -> [ 60@0 ]  13 -> [ 60@0 ]  14 -> [ 60@0 ]  15 -> [ 60@0 ]  16 -> [ 60@0 ]  17 -> [ 60@0 ]  18 -> [ 60@0 ]  19 -> [ 60@0 ]  20 -> [ 60@0 ]  22 -> [ 60@0 ]  23 -> [ 60@0 ]  24 -> [ 60@0 ]  25 -> [ 60@0 ]  26 -> [ 60@0 ]  27 -> [ 60@0 ]  28 -> [ 60@0 ]  29 -> [ 60@0 ]  30 -> [ 60@0 ]  31 -> [ 60@0 ]  ], output requests = [ 60 -> [ 2@0 4@0 6@0 7@0 8@0 9@0 10@0 11@0 12@0 13@0 14@0 15@0 16@0 17@0 18@0 19@0 20@0 22@0 23@0 24@0 25@0 26@0 27@0 28@0 29@0 30@0 31@0 ]  ].
5 | network_0/router_0/vc_allocator | Input grants = [ 4 -> 60  ], output grants = [ 60 -> 4  ].
5 | network_0/router_0 | VC allocation failed for VC 0 at input 3.
5 | network_0/router_0 | Completed VC allocation for VC 0 at input 3 (front: 1).
5 | network_0/router_0 |   No output VC allocated.
6 | network_0/router_0 | Beginning VC allocation for VC 0 at input 3 (front: 1).
6 | network_0/router_0 |   VC 0 at output 30 is in use by VC 0 at input 2 (front flit: 357).
6 | network_0/router_0 |   Requesting VC 1 at output 30 (in_pri: 0, out_pri: 0).
6 | network_0/router_0/vc_allocator | Input requests = [ 0 -> [ 61@0 ]  2 -> [ 61@0 ]  3 -> [ 61@0 ]  5 -> [ 61@0 ]  6 -> [ 61@0 ]  7 -> [ 61@0 ]  8 -> [ 61@0 ]  9 -> [ 61@0 ]  10 -> [ 61@0 ]  11 -> [ 61@0 ]  12 -> [ 61@0 ]  13 -> [ 61@0 ]  14 -> [ 61@0 ]  15 -> [ 61@0 ]  16 -> [ 61@0 ]  17 -> [ 61@0 ]  18 -> [ 61@0 ]  19 -> [ 61@0 ]  20 -> [ 61@0 ]  22 -> [ 61@0 ]  23 -> [ 61@0 ]  24 -> [ 61@0 ]  25 -> [ 61@0 ]  26 -> [ 61@0 ]  27 -> [ 61@0 ]  28 -> [ 61@0 ]  29 -> [ 61@0 ]  30 -> [ 61@0 ]  31 -> [ 61@0 ]  ], output requests = [ 61 -> [ 0@0 2@0 3@0 5@0 6@0 7@0 8@0 9@0 10@0 11@0 12@0 13@0 14@0 15@0 16@0 17@0 18@0 19@0 20@0 22@0 23@0 24@0 25@0 26@0 27@0 28@0 29@0 30@0 31@0 ]  ].
6 | network_0/router_0/vc_allocator | Input grants = [ 2 -> 61  ], output grants = [ 61 -> 2  ].
6 | network_0/router_0 | VC allocation failed for VC 0 at input 3.
6 | network_0/router_0 | Completed VC allocation for VC 0 at input 3 (front: 1).
6 | network_0/router_0 |   No output VC allocated.
6 | network_0/router_0 | Beginning VC allocation for VC 0 at input 3 (front: 1).
6 | network_0/router_0 |   Requesting VC 0 at output 30 (in_pri: 0, out_pri: 0).
6 | network_0/router_0 |   VC 1 at output 30 is in use by VC 0 at input 1 (front flit: 356).
6 | network_0/router_0/vc_allocator | Input requests = [ 0 -> [ 60@0 ]  3 -> [ 60@0 ]  5 -> [ 60@0 ]  6 -> [ 60@0 ]  7 -> [ 60@0 ]  8 -> [ 60@0 ]  9 -> [ 60@0 ]  10 -> [ 60@0 ]  11 -> [ 60@0 ]  12 -> [ 60@0 ]  13 -> [ 60@0 ]  14 -> [ 60@0 ]  15 -> [ 60@0 ]  16 -> [ 60@0 ]  17 -> [ 60@0 ]  18 -> [ 60@0 ]  19 -> [ 60@0 ]  20 -> [ 60@0 ]  21 -> [ 60@0 ]  22 -> [ 60@0 ]  23 -> [ 60@0 ]  24 -> [ 60@0 ]  25 -> [ 60@0 ]  26 -> [ 60@0 ]  27 -> [ 60@0 ]  28 -> [ 60@0 ]  29 -> [ 60@0 ]  30 -> [ 60@0 ]  31 -> [ 60@0 ]  60 -> [ 30@0 31@0 ]  ], output requests = [ 30 -> [ 60@0 ]  31 -> [ 60@0 ]  60 -> [ 0@0 3@0 5@0 6@0 7@0 8@0 9@0 10@0 11@0 12@0 13@0 14@0 15@0 16@0 17@0 18@0 19@0 20@0 21@0 22@0 23@0 24@0 25@0 26@0 27@0 28@0 29@0 30@0 31@0 ]  ].
6 | network_0/router_0/vc_allocator | Input grants = [ 5 -> 60  60 -> 30  ], output grants = [ 30 -> 60  60 -> 5  ].
6 | network_0/router_0 | VC allocation failed for VC 0 at input 3.
6 | network_0/router_0 | Completed VC allocation for VC 0 at input 3 (front: 1).
6 | network_0/router_0 |   No output VC allocated.
7 | network_0/router_0 | Beginning VC allocation for VC 0 at input 3 (front: 1).
7 | network_0/router_0 |   VC 0 at output 30 is in use by VC 1 at input 2 (front flit: 525).
7 | network_0/router_0 |   Requesting VC 1 at output 30 (in_pri: 0, out_pri: 0).
7 | network_0/router_0/vc_allocator | Input requests = [ 0 -> [ 61@0 ]  3 -> [ 61@0 ]  4 -> [ 61@0 ]  6 -> [ 61@0 ]  7 -> [ 61@0 ]  8 -> [ 61@0 ]  9 -> [ 61@0 ]  10 -> [ 61@0 ]  11 -> [ 61@0 ]  12 -> [ 61@0 ]  13 -> [ 61@0 ]  14 -> [ 61@0 ]  15 -> [ 61@0 ]  16 -> [ 61@0 ]  17 -> [ 61@0 ]  18 -> [ 61@0 ]  19 -> [ 61@0 ]  20 -> [ 61@0 ]  21 -> [ 61@0 ]  22 -> [ 61@0 ]  23 -> [ 61@0 ]  24 -> [ 61@0 ]  25 -> [ 61@0 ]  26 -> [ 61@0 ]  27 -> [ 61@0 ]  28 -> [ 61@0 ]  29 -> [ 61@0 ]  30 -> [ 61@0 ]  31 -> [ 61@0 ]  ], output requests = [ 61 -> [ 0@0 3@0 4@0 6@0 7@0 8@0 9@0 10@0 11@0 12@0 13@0 14@0 15@0 16@0 17@0 18@0 19@0 20@0 21@0 22@0 23@0 24@0 25@0 26@0 27@0 28@0 29@0 30@0 31@0 ]  ].
7 | network_0/router_0/vc_allocator | Input grants = [ 3 -> 61  ], output grants = [ 61 -> 3  ].
7 | network_0/router_0 | VC allocation failed for VC 0 at input 3.
7 | network_0/router_0 | Completed VC allocation for VC 0 at input 3 (front: 1).
7 | network_0/router_0 |   No output VC allocated.
8 | network_0/router_0 | Beginning VC allocation for VC 0 at input 3 (front: 1).
8 | network_0/router_0 |   Requesting VC 0 at output 30 (in_pri: 0, out_pri: 0).
8 | network_0/router_0 |   VC 1 at output 30 is in use by VC 1 at input 1 (front flit: 524).
8 | network_0/router_0/vc_allocator | Input requests = [ 0 -> [ 60@0 ]  2 -> [ 60@0 ]  4 -> [ 60@0 ]  6 -> [ 60@0 ]  7 -> [ 60@0 ]  8 -> [ 60@0 ]  9 -> [ 60@0 ]  10 -> [ 60@0 ]  11 -> [ 60@0 ]  12 -> [ 60@0 ]  13 -> [ 60@0 ]  14 -> [ 60@0 ]  15 -> [ 60@0 ]  16 -> [ 60@0 ]  17 -> [ 60@0 ]  18 -> [ 60@0 ]  19 -> [ 60@0 ]  20 -> [ 60@0 ]  21 -> [ 60@0 ]  22 -> [ 60@0 ]  23 -> [ 60@0 ]  24 -> [ 60@0 ]  25 -> [ 60@0 ]  26 -> [ 60@0 ]  27 -> [ 60@0 ]  28 -> [ 60@0 ]  29 -> [ 60@0 ]  30 -> [ 60@0 ]  31 -> [ 60@0 ]  61 -> [ 30@0 31@0 ]  ], output requests = [ 30 -> [ 61@0 ]  31 -> [ 61@0 ]  60 -> [ 0@0 2@0 4@0 6@0 7@0 8@0 9@0 10@0 11@0 12@0 13@0 14@0 15@0 16@0 17@0 18@0 19@0 20@0 21@0 22@0 23@0 24@0 25@0 26@0 27@0 28@0 29@0 30@0 31@0 ]  ].
8 | network_0/router_0/vc_allocator | Input grants = [ 6 -> 60  61 -> 30  ], output grants = [ 30 -> 61  60 -> 6  ].
8 | network_0/router_0 | Assigning VC 0 at output 30 to VC 0 at input 3.
8 | network_0/router_0 | Completed VC allocation for VC 0 at input 3 (front: 1).
8 | network_0/router_0 |   Acquiring assigned VC 0 at output 30.
8 | network_0/router_0/buf_3/vc_0 | Changing state from vc_alloc to active.
8 | network_0/router_0 | Beginning switch allocation for VC 0 at input 3 (front: 1).
8 | network_0/router_0 |   Requesting output 30.0 (non-spec, pri: 0).
8 | network_0/router_0/sw_allocator | Input requests = [ 3 -> [ 30@0 ]  30 -> [ 15@0 ]  ], output requests = [ 15 -> [ 30@0 ]  30 -> [ 3@0 ]  ].
8 | network_0/router_0/sw_allocator | Input grants = [ 3 -> 30  30 -> 15  ], output grants = [ 15 -> 30  30 -> 3  ].
8 | network_0/router_0 | Assigning output 30.0 to VC 0 at input 3.0.
8 | network_0/router_0 | Completed switch allocation for VC 0 at input 3 (front: 1).
8 | network_0/router_0 |   Scheduling switch connection from input 3.0 to output 30.0.
9 | network_0/router_0 | Beginning crossbar traversal for flit 1 from input 3.0 to output 30.0.
9 | network_0/router_0 | Completed crossbar traversal for flit 1 from input 3.0 to output 30.0.
9 | network_0/router_0 | Buffering flit 1 at output 30.
12 | network_0/router_0 | Sending flit 1 to channel at output 30.
13 | network_0/network_0_fchan_14 | Beginning channel traversal for flit 1 with delay 1.
13 | network_0/network_0_fchan_14 | Completed channel traversal for flit 1.
14 | network_0/router_15 | Received flit 1 from channel at input 16.
14 | network_0/router_15 | Adding flit 1 to VC 0 at input 16 (state: idle, empty).
14 | network_0/router_15/buf_16/vc_0 | Changing state from idle to routing.
14 | network_0/router_15 | Beginning routing for VC 0 at input 16 (front: 1).
14 | network_0/router_15 | Completed routing for VC 0 at input 16 (front: 1).
14 | network_0/router_15/buf_16/vc_0 | Changing state from routing to vc_alloc.
14 | network_0/router_15 | Beginning VC allocation for VC 0 at input 16 (front: 1).
14 | network_0/router_15 |   Requesting VC 0 at output 12 (in_pri: 0, out_pri: 0).
14 | network_0/router_15 |   Requesting VC 1 at output 12 (in_pri: 0, out_pri: 0).
14 | network_0/router_15/vc_allocator | Input requests = [ 0 -> [ 33@0 ]  1 -> [ 33@0 ]  2 -> [ 33@0 ]  3 -> [ 33@0 ]  4 -> [ 33@0 ]  5 -> [ 33@0 ]  6 -> [ 33@0 ]  7 -> [ 33@0 ]  8 -> [ 33@0 ]  9 -> [ 33@0 ]  10 -> [ 33@0 ]  11 -> [ 33@0 ]  12 -> [ 33@0 ]  13 -> [ 33@0 ]  14 -> [ 33@0 ]  15 -> [ 33@0 ]  16 -> [ 33@0 ]  19 -> [ 33@0 ]  20 -> [ 33@0 ]  21 -> [ 33@0 ]  22 -> [ 33@0 ]  23 -> [ 33@0 ]  24 -> [ 33@0 ]  25 -> [ 33@0 ]  26 -> [ 33@0 ]  27 -> [ 33@0 ]  28 -> [ 33@0 ]  29 -> [ 33@0 ]  30 -> [ 33@0 ]  31 -> [ 33@0 ]  32 -> [ 24@0 25@0 ]  ], output requests = [ 24 -> [ 32@0 ]  25 -> [ 32@0 ]  33 -> [ 0@0 1@0 2@0 3@0 4@0 5@0 6@0 7@0 8@0 9@0 10@0 11@0 12@0 13@0 14@0 15@0 16@0 19@0 20@0 21@0 22@0 23@0 24@0 25@0 26@0 27@0 28@0 29@0 30@0 31@0 ]  ].
14 | network_0/router_15/vc_allocator | Input grants = [ 19 -> 33  32 -> 24  ], output grants = [ 24 -> 32  33 -> 19  ].
14 | network_0/router_15 | Assigning VC 0 at output 12 to VC 0 at input 16.
14 | network_0/router_15 | Completed VC allocation for VC 0 at input 16 (front: 1).
14 | network_0/router_15 |   Acquiring assigned VC 0 at output 12.
14 | network_0/router_15/buf_16/vc_0 | Changing state from vc_alloc to active.
15 | network_0/router_15 | Beginning switch allocation for VC 0 at input 16 (front: 1).
15 | network_0/router_15 |   Requesting output 12.0 (non-spec, pri: 0).
15 | network_0/router_15/sw_allocator | Input requests = [ 9 -> [ 16@0 ]  16 -> [ 12@0 ]  ], output requests = [ 12 -> [ 16@0 ]  16 -> [ 9@0 ]  ].
15 | network_0/router_15/sw_allocator | Input grants = [ 9 -> 16  16 -> 12  ], output grants = [ 12 -> 16  16 -> 9  ].
15 | network_0/router_15 | Assigning output 12.0 to VC 0 at input 16.0.
15 | network_0/router_15 | Completed switch allocation for VC 0 at input 16 (front: 1).
15 | network_0/router_15 |   Scheduling switch connection from input 16.0 to output 12.0.
16 | network_0/router_15 | Beginning crossbar traversal for flit 1 from input 16.0 to output 12.0.
16 | network_0/router_15 | Completed crossbar traversal for flit 1 from input 16.0 to output 12.0.
16 | network_0/router_15 | Buffering flit 1 at output 12.
16 | network_0/router_15 | Sending flit 1 to channel at output 12.
17 | network_0/network_0_fchan_egress252 | Beginning channel traversal for flit 1 with delay 1.
17 | network_0/network_0_fchan_egress252 | Completed channel traversal for flit 1.
18 | node252 | Ejecting flit 1 (packet 1) from VC 0.
18 | node252 | Injecting credit for VC 0 into subnet 0.
18 | node252 | Retiring flit 1 (packet 1, src = 3, dest = 252, hops = 2, flat = 18).
18 | node252 | Retiring packet 1 (plat = 18, nlat = 18, frag = 0, src = 3, dest = 252).
Class 0:
Packet latency average = 460.349
	minimum = 10
	maximum = 920
Network latency average = 385.099
	minimum = 10
	maximum = 543
Slowest packet = 7457
Flit latency average = 385.099
	minimum = 10
	maximum = 543
Slowest flit = 8630
Fragmentation average = 0
	minimum = 0
	maximum = 0
Injected packet rate average = 0.0958125
	minimum = 0.094 (at node 15)
	maximum = 0.098 (at node 33)
Accepted packet rate average = 0.061875
	minimum = 0.06 (at node 0)
	maximum = 0.064 (at node 56)
Injected flit rate average = 0.0958125
	minimum = 0.094 (at node 15)
	maximum = 0.098 (at node 33)
Accepted flit rate average= 0.061875
	minimum = 0.06 (at node 0)
	maximum = 0.064 (at node 56)
Injected packet length average = 1
Accepted packet length average = 1
Total in-flight flits = 8928 (0 measured)
latency change    = 1
throughput change = 1
Class 0:
Packet latency average = 915.667
	minimum = 10
	maximum = 1836
Network latency average = 464.377
	minimum = 10
	maximum = 543
Slowest packet = 7457
Flit latency average = 464.377
	minimum = 10
	maximum = 543
Slowest flit = 8630
Fragmentation average = 0
	minimum = 0
	maximum = 0
Injected packet rate average = 0.0791562
	minimum = 0.078 (at node 11)
	maximum = 0.08 (at node 1)
Accepted packet rate average = 0.0621875
	minimum = 0.062 (at node 0)
	maximum = 0.064 (at node 94)
Injected flit rate average = 0.0791562
	minimum = 0.078 (at node 11)
	maximum = 0.08 (at node 1)
Accepted flit rate average= 0.0621875
	minimum = 0.062 (at node 0)
	maximum = 0.064 (at node 94)
Injected packet length average = 1
Accepted packet length average = 1
Total in-flight flits = 8928 (0 measured)
latency change    = 0.497252
throughput change = 0.00502513
Class 0:
Packet latency average = 2277.04
	minimum = 1798
	maximum = 2753
Network latency average = 542.862
	minimum = 542
	maximum = 543
Slowest packet = 31615
Flit latency average = 542.862
	minimum = 542
	maximum = 543
Slowest flit = 31615
Fragmentation average = 0
	minimum = 0
	maximum = 0
Injected packet rate average = 0.0625
	minimum = 0.06 (at node 5)
	maximum = 0.064 (at node 0)
Accepted packet rate average = 0.0625
	minimum = 0.06 (at node 48)
	maximum = 0.064 (at node 9)
Injected flit rate average = 0.0625
	minimum = 0.06 (at node 5)
	maximum = 0.064 (at node 0)
Accepted flit rate average= 0.0625
	minimum = 0.06 (at node 48)
	maximum = 0.064 (at node 9)
Injected packet length average = 1
Accepted packet length average = 1
Total in-flight flits = 8928 (0 measured)
latency change    = 0.597869
throughput change = 0.005
Warmed up ...Time used is 3000 cycles
Class 0:
Packet latency average = 3441.12
	minimum = 3194
	maximum = 3668
Network latency average = 542.865
	minimum = 542
	maximum = 543
Slowest packet = 56783
Flit latency average = 542.862
	minimum = 542
	maximum = 543
Slowest flit = 47615
Fragmentation average = 0
	minimum = 0
	maximum = 0
Injected packet rate average = 0.0625
	minimum = 0.06 (at node 0)
	maximum = 0.064 (at node 5)
Accepted packet rate average = 0.0625
	minimum = 0.06 (at node 52)
	maximum = 0.064 (at node 5)
Injected flit rate average = 0.0625
	minimum = 0.06 (at node 0)
	maximum = 0.064 (at node 5)
Accepted flit rate average= 0.0625
	minimum = 0.06 (at node 52)
	maximum = 0.064 (at node 5)
Injected packet length average = 1
Accepted packet length average = 1
Total in-flight flits = 8928 (8928 measured)
latency change    = 0.338285
throughput change = 0
Class 0:
Packet latency average = 3896.89
	minimum = 3194
	maximum = 4581
Network latency average = 542.863
	minimum = 542
	maximum = 543
Slowest packet = 56783
Flit latency average = 542.862
	minimum = 542
	maximum = 543
Slowest flit = 47615
Fragmentation average = 0
	minimum = 0
	maximum = 0
Injected packet rate average = 0.0625
	minimum = 0.062 (at node 0)
	maximum = 0.064 (at node 5)
Accepted packet rate average = 0.0625
	minimum = 0.062 (at node 0)
	maximum = 0.064 (at node 48)
Injected flit rate average = 0.0625
	minimum = 0.062 (at node 0)
	maximum = 0.064 (at node 5)
Accepted flit rate average= 0.0625
	minimum = 0.062 (at node 0)
	maximum = 0.064 (at node 48)
Injected packet length average = 1
Accepted packet length average = 1
Total in-flight flits = 8928 (8928 measured)
latency change    = 0.116958
throughput change = 0
Class 0:
Packet latency average = 4352.42
	minimum = 3194
	maximum = 5497
Network latency average = 542.863
	minimum = 542
	maximum = 543
Slowest packet = 56783
Flit latency average = 542.862
	minimum = 542
	maximum = 543
Slowest flit = 47615
Fragmentation average = 0
	minimum = 0
	maximum = 0
Injected packet rate average = 0.0625
	minimum = 0.0616667 (at node 2)
	maximum = 0.0626667 (at node 0)
Accepted packet rate average = 0.0625
	minimum = 0.0613333 (at node 84)
	maximum = 0.0626667 (at node 0)
Injected flit rate average = 0.0625
	minimum = 0.0616667 (at node 2)
	maximum = 0.0626667 (at node 0)
Accepted flit rate average= 0.0625
	minimum = 0.0613333 (at node 84)
	maximum = 0.0626667 (at node 0)
Injected packet length average = 1
Accepted packet length average = 1
Total in-flight flits = 8928 (8928 measured)
latency change    = 0.104661
throughput change = 0
Draining remaining packets ...
Time taken is 6559 cycles
====== Overall Traffic Statistics ======
====== Traffic class 0 ======
Packet latency average = 4606.56 (1 samples)
	minimum = 3194 (1 samples)
	maximum = 6014 (1 samples)
Network latency average = 542.802 (1 samples)
	minimum = 501 (1 samples)
	maximum = 543 (1 samples)
Flit latency average = 542.811 (1 samples)
	minimum = 501 (1 samples)
	maximum = 543 (1 samples)
Fragmentation average = 0 (1 samples)
	minimum = 0 (1 samples)
	maximum = 0 (1 samples)
Injected packet rate average = 0.0625 (1 samples)
	minimum = 0.0616667 (1 samples)
	maximum = 0.0626667 (1 samples)
Accepted packet rate average = 0.0625 (1 samples)
	minimum = 0.0613333 (1 samples)
	maximum = 0.0626667 (1 samples)
Injected flit rate average = 0.0625 (1 samples)
	minimum = 0.0616667 (1 samples)
	maximum = 0.0626667 (1 samples)
Accepted flit rate average = 0.0625 (1 samples)
	minimum = 0.0613333 (1 samples)
	maximum = 0.0626667 (1 samples)
Injected packet size average = 1 (1 samples)
Accepted packet size average = 1 (1 samples)
Hops average = 2 (1 samples)
Total run time 34.0935
