BEGIN Configuration File: ../../booksim2/src/examples/flatflyconfig
// $Id$

// Copyright (c) 2007-2015, Trustees of The Leland Stanford Junior University
// All rights reserved.
//
// Redistribution and use in source and binary forms, with or without
// modification, are permitted provided that the following conditions are met:
//
// Redistributions of source code must retain the above copyright notice, this
// list of conditions and the following disclaimer.
// Redistributions in binary form must reproduce the above copyright notice,
// this list of conditions and the following disclaimer in the documentation
// and/or other materials provided with the distribution.
//
// THIS SOFTWARE IS PROVIDED BY THE COPYRIGHT HOLDERS AND CONTRIBUTORS "AS IS"
// AND ANY EXPRESS OR IMPLIED WARRANTIES, INCLUDING, BUT NOT LIMITED TO, THE
// IMPLIED WARRANTIES OF MERCHANTABILITY AND FITNESS FOR A PARTICULAR PURPOSE
// ARE DISCLAIMED. IN NO EVENT SHALL THE COPYRIGHT OWNER OR CONTRIBUTORS BE
// LIABLE FOR ANY DIRECT, INDIRECT, INCIDENTAL, SPECIAL, EXEMPLARY, OR
// CONSEQUENTIAL DAMAGES (INCLUDING, BUT NOT LIMITED TO, PROCUREMENT OF
// SUBSTITUTE GOODS OR SERVICES; LOSS OF USE, DATA, OR PROFITS; OR BUSINESS
// INTERRUPTION) HOWEVER CAUSED AND ON ANY THEORY OF LIABILITY, WHETHER IN
// CONTRACT, STRICT LIABILITY, OR TORT (INCLUDING NEGLIGENCE OR OTHERWISE)
// ARISING IN ANY WAY OUT OF THE USE OF THIS SOFTWARE, EVEN IF ADVISED OF THE
// POSSIBILITY OF SUCH DAMAGE.

//A flattened butterfly configurate file with many tweaks from the
//default settings. 


// Flow control
// Total number of VCs must match the above assignments
num_vcs     = 2;
vc_buf_size = 16;

wait_for_tail_credit = 0;

//
// Router architectureq
//
vc_allocator = islip; 
sw_allocator = islip;
alloc_iters  = 3;

credit_delay   = 0;
routing_delay  = 1;
vc_alloc_delay = 1;
sw_alloc_delay = 1;
st_final_delay = 1;

input_speedup     = 1;
output_speedup    = 1;
internal_speedup  = 1.6;

//
// Traffic
//

warmup_periods = 3;

sample_period  = 1000;  

sim_count          = 1;

traffic       = bitrev;


// Flatfly 
//
// #node = k^(n+1)
//
// x, y, specifies the arrangement of routers in x and y dim
// xr, yr specifiies the arayment of clients in a router
//
topology = flatfly;
subnets = 1;

c  = 16;
k  = 16;
n  = 1;

x  = 16;
y  = 1;
xr = 16;
yr = 1;

use_noc_latency = 0;

//
// Routing
//

routing_function = ran_min;

//1: batch mode, 0: injection mode
use_read_write = 0;

//for injection mode
packet_size = 1;
injection_rate = 0.1;

//for batch mode
read_request_size=1;
write_request_size=1;
read_reply_size=1;
write_reply_size=1;

read_request_begin_vc  = 0;
read_request_end_vc    = 3;
write_reply_begin_vc   = 4;
write_reply_end_vc     = 7;
read_reply_begin_vc    = 4;
read_reply_end_vc      = 7;
write_request_begin_vc = 0;
write_request_end_vc   = 3;

//latency: drains all packet, throughput:no drain?
sim_type = latency;

watch_out = -;

END Configuration File: ../../booksim2/src/examples/flatflyconfig
OVERRIDE Parameter: traffic=bitcomp
OVERRIDE Parameter: injection_rate={0.225}
OVERRIDE Parameter: c=16
OVERRIDE Parameter: k=16
OVERRIDE Parameter: x=16
OVERRIDE Parameter: xr=16
OVERRIDE Parameter: sim_type=throughput
 Flat Bufferfly 
 k = 16 n = 1 c = 16
 each switch - total radix =  31
 # of switches = 16
 # of channels = 240
 # of nodes ( size of network ) = 256
0 | node15 | Enqueuing flit 1 (packet 1) at time 0.
0 | traffic_manager | Finding output VC for flit 1:
0 | traffic_manager |   Selected output VC 0.
0 | node15 | Injecting flit 1 into subnet 0 at time 0 with priority 0.
1 | network_0/network_0_fchan_ingress15 | Beginning channel traversal for flit 1 with delay 1.
1 | network_0/network_0_fchan_ingress15 | Completed channel traversal for flit 1.
2 | network_0/router_0 | Received flit 1 from channel at input 15.
2 | network_0/router_0 | Adding flit 1 to VC 0 at input 15 (state: idle, empty).
2 | network_0/router_0/buf_15/vc_0 | Changing state from idle to routing.
2 | network_0/router_0 | Beginning routing for VC 0 at input 15 (front: 1).
2 | network_0/router_0 | Completed routing for VC 0 at input 15 (front: 1).
2 | network_0/router_0/buf_15/vc_0 | Changing state from routing to vc_alloc.
3 | network_0/router_0 | Beginning VC allocation for VC 0 at input 15 (front: 1).
3 | network_0/router_0 |   Requesting VC 0 at output 30 (in_pri: 0, out_pri: 0).
3 | network_0/router_0 |   Requesting VC 1 at output 30 (in_pri: 0, out_pri: 0).
3 | network_0/router_0/vc_allocator | Input requests = [ 26 -> [ 60@0 61@0 ]  30 -> [ 60@0 61@0 ]  ], output requests = [ 60 -> [ 26@0 30@0 ]  61 -> [ 26@0 30@0 ]  ].
3 | network_0/router_0/vc_allocator | Input grants = [ 26 -> 60  ], output grants = [ 60 -> 26  ].
3 | network_0/router_0 | VC allocation failed for VC 0 at input 15.
3 | network_0/router_0 | Completed VC allocation for VC 0 at input 15 (front: 1).
3 | network_0/router_0 |   No output VC allocated.
3 | network_0/router_0 | Beginning VC allocation for VC 0 at input 15 (front: 1).
3 | network_0/router_0 |   VC 0 at output 30 is in use by VC 0 at input 13 (front flit: 0).
3 | network_0/router_0 |   Requesting VC 1 at output 30 (in_pri: 0, out_pri: 0).
3 | network_0/router_0/vc_allocator | Input requests = [ 6 -> [ 61@0 ]  22 -> [ 61@0 ]  24 -> [ 61@0 ]  27 -> [ 61@0 ]  30 -> [ 61@0 ]  31 -> [ 61@0 ]  ], output requests = [ 61 -> [ 6@0 22@0 24@0 27@0 30@0 31@0 ]  ].
3 | network_0/router_0/vc_allocator | Input grants = [ 6 -> 61  ], output grants = [ 61 -> 6  ].
3 | network_0/router_0 | VC allocation failed for VC 0 at input 15.
3 | network_0/router_0 | Completed VC allocation for VC 0 at input 15 (front: 1).
3 | network_0/router_0 |   No output VC allocated.
4 | network_0/router_0 | Beginning VC allocation for VC 0 at input 15 (front: 1).
4 | network_0/router_0 |   Requesting VC 0 at output 30 (in_pri: 0, out_pri: 0).
4 | network_0/router_0 |   VC 1 at output 30 is in use by VC 0 at input 3 (front flit: 49).
4 | network_0/router_0/vc_allocator | Input requests = [ 22 -> [ 60@0 ]  24 -> [ 60@0 ]  27 -> [ 60@0 ]  30 -> [ 60@0 ]  31 -> [ 60@0 ]  ], output requests = [ 60 -> [ 22@0 24@0 27@0 30@0 31@0 ]  ].
4 | network_0/router_0/vc_allocator | Input grants = [ 27 -> 60  ], output grants = [ 60 -> 27  ].
4 | network_0/router_0 | VC allocation failed for VC 0 at input 15.
4 | network_0/router_0 | Completed VC allocation for VC 0 at input 15 (front: 1).
4 | network_0/router_0 |   No output VC allocated.
4 | network_0/router_0 | Beginning VC allocation for VC 0 at input 15 (front: 1).
4 | network_0/router_0 |   VC 0 at output 30 is in use by VC 1 at input 13 (front flit: 52).
4 | network_0/router_0 |   Requesting VC 1 at output 30 (in_pri: 0, out_pri: 0).
4 | network_0/router_0/vc_allocator | Input requests = [ 16 -> [ 61@0 ]  22 -> [ 61@0 ]  24 -> [ 61@0 ]  26 -> [ 61@0 ]  30 -> [ 61@0 ]  31 -> [ 61@0 ]  ], output requests = [ 61 -> [ 16@0 22@0 24@0 26@0 30@0 31@0 ]  ].
4 | network_0/router_0/vc_allocator | Input grants = [ 16 -> 61  ], output grants = [ 61 -> 16  ].
4 | network_0/router_0 | VC allocation failed for VC 0 at input 15.
4 | network_0/router_0 | Completed VC allocation for VC 0 at input 15 (front: 1).
4 | network_0/router_0 |   No output VC allocated.
5 | network_0/router_0 | Beginning VC allocation for VC 0 at input 15 (front: 1).
5 | network_0/router_0 |   Requesting VC 0 at output 30 (in_pri: 0, out_pri: 0).
5 | network_0/router_0 |   VC 1 at output 30 is in use by VC 0 at input 8 (front flit: 102).
5 | network_0/router_0/vc_allocator | Input requests = [ 22 -> [ 60@0 ]  24 -> [ 60@0 ]  26 -> [ 60@0 ]  30 -> [ 60@0 ]  31 -> [ 60@0 ]  ], output requests = [ 60 -> [ 22@0 24@0 26@0 30@0 31@0 ]  ].
5 | network_0/router_0/vc_allocator | Input grants = [ 30 -> 60  ], output grants = [ 60 -> 30  ].
5 | network_0/router_0 | Assigning VC 0 at output 30 to VC 0 at input 15.
5 | network_0/router_0 | Completed VC allocation for VC 0 at input 15 (front: 1).
5 | network_0/router_0 |   Acquiring assigned VC 0 at output 30.
5 | network_0/router_0/buf_15/vc_0 | Changing state from vc_alloc to active.
6 | network_0/router_0 | Beginning switch allocation for VC 0 at input 15 (front: 1).
6 | network_0/router_0 |   Requesting output 30.0 (non-spec, pri: 0).
6 | network_0/router_0/sw_allocator | Input requests = [ 15 -> [ 30@0 ]  ], output requests = [ 30 -> [ 15@0 ]  ].
6 | network_0/router_0/sw_allocator | Input grants = [ 15 -> 30  ], output grants = [ 30 -> 15  ].
6 | network_0/router_0 | Assigning output 30.0 to VC 0 at input 15.0.
6 | network_0/router_0 | Completed switch allocation for VC 0 at input 15 (front: 1).
6 | network_0/router_0 |   Scheduling switch connection from input 15.0 to output 30.0.
6 | network_0/router_0 | Beginning crossbar traversal for flit 1 from input 15.0 to output 30.0.
6 | network_0/router_0 | Completed crossbar traversal for flit 1 from input 15.0 to output 30.0.
6 | network_0/router_0 | Buffering flit 1 at output 30.
8 | network_0/router_0 | Sending flit 1 to channel at output 30.
9 | network_0/network_0_fchan_14 | Beginning channel traversal for flit 1 with delay 1.
9 | network_0/network_0_fchan_14 | Completed channel traversal for flit 1.
10 | network_0/router_15 | Received flit 1 from channel at input 16.
10 | network_0/router_15 | Adding flit 1 to VC 0 at input 16 (state: idle, empty).
10 | network_0/router_15/buf_16/vc_0 | Changing state from idle to routing.
10 | network_0/router_15 | Beginning routing for VC 0 at input 16 (front: 1).
10 | network_0/router_15 | Completed routing for VC 0 at input 16 (front: 1).
10 | network_0/router_15/buf_16/vc_0 | Changing state from routing to vc_alloc.
11 | network_0/router_15 | Beginning VC allocation for VC 0 at input 16 (front: 1).
11 | network_0/router_15 |   Requesting VC 0 at output 0 (in_pri: 0, out_pri: 0).
11 | network_0/router_15 |   Requesting VC 1 at output 0 (in_pri: 0, out_pri: 0).
11 | network_0/router_15/vc_allocator | Input requests = [ 0 -> [ 33@0 ]  2 -> [ 33@0 ]  4 -> [ 33@0 ]  6 -> [ 33@0 ]  7 -> [ 33@0 ]  8 -> [ 33@0 ]  12 -> [ 33@0 ]  16 -> [ 33@0 ]  19 -> [ 33@0 ]  20 -> [ 33@0 ]  22 -> [ 33@0 ]  24 -> [ 33@0 ]  25 -> [ 33@0 ]  26 -> [ 33@0 ]  27 -> [ 33@0 ]  30 -> [ 33@0 ]  31 -> [ 33@0 ]  32 -> [ 0@0 1@0 ]  ], output requests = [ 0 -> [ 32@0 ]  1 -> [ 32@0 ]  33 -> [ 0@0 2@0 4@0 6@0 7@0 8@0 12@0 16@0 19@0 20@0 22@0 24@0 25@0 26@0 27@0 30@0 31@0 ]  ].
11 | network_0/router_15/vc_allocator | Input grants = [ 19 -> 33  32 -> 0  ], output grants = [ 0 -> 32  33 -> 19  ].
11 | network_0/router_15 | Assigning VC 0 at output 0 to VC 0 at input 16.
11 | network_0/router_15 | Completed VC allocation for VC 0 at input 16 (front: 1).
11 | network_0/router_15 |   Acquiring assigned VC 0 at output 0.
11 | network_0/router_15/buf_16/vc_0 | Changing state from vc_alloc to active.
11 | network_0/router_15 | Beginning switch allocation for VC 0 at input 16 (front: 1).
11 | network_0/router_15 |   Requesting output 0.0 (non-spec, pri: 0).
11 | network_0/router_15/sw_allocator | Input requests = [ 9 -> [ 16@0 ]  16 -> [ 0@0 ]  ], output requests = [ 0 -> [ 16@0 ]  16 -> [ 9@0 ]  ].
11 | network_0/router_15/sw_allocator | Input grants = [ 9 -> 16  16 -> 0  ], output grants = [ 0 -> 16  16 -> 9  ].
11 | network_0/router_15 | Assigning output 0.0 to VC 0 at input 16.0.
11 | network_0/router_15 | Completed switch allocation for VC 0 at input 16 (front: 1).
11 | network_0/router_15 |   Scheduling switch connection from input 16.0 to output 0.0.
12 | network_0/router_15 | Beginning crossbar traversal for flit 1 from input 16.0 to output 0.0.
12 | network_0/router_15 | Completed crossbar traversal for flit 1 from input 16.0 to output 0.0.
12 | network_0/router_15 | Buffering flit 1 at output 0.
12 | network_0/router_15 | Sending flit 1 to channel at output 0.
13 | network_0/network_0_fchan_egress240 | Beginning channel traversal for flit 1 with delay 1.
13 | network_0/network_0_fchan_egress240 | Completed channel traversal for flit 1.
14 | node240 | Ejecting flit 1 (packet 1) from VC 0.
14 | node240 | Injecting credit for VC 0 into subnet 0.
14 | node240 | Retiring flit 1 (packet 1, src = 15, dest = 240, hops = 2, flat = 14).
14 | node240 | Retiring packet 1 (plat = 14, nlat = 14, frag = 0, src = 15, dest = 240).
Class 0:
Packet latency average = 362.816
	minimum = 9
	maximum = 782
Network latency average = 340.437
	minimum = 9
	maximum = 543
Slowest packet = 7960
Flit latency average = 340.437
	minimum = 9
	maximum = 543
Slowest flit = 7960
Fragmentation average = 0
	minimum = 0
	maximum = 0
Injected packet rate average = 0.0958125
	minimum = 0.093 (at node 42)
	maximum = 0.099 (at node 164)
Accepted packet rate average = 0.061875
	minimum = 0.059 (at node 138)
	maximum = 0.065 (at node 91)
Injected flit rate average = 0.0958125
	minimum = 0.093 (at node 42)
	maximum = 0.099 (at node 164)
Accepted flit rate average= 0.061875
	minimum = 0.059 (at node 138)
	maximum = 0.065 (at node 91)
Injected packet length average = 1
Accepted packet length average = 1
Total in-flight flits = 8928 (0 measured)
latency change    = 1
throughput change = 1
Class 0:
Packet latency average = 723.939
	minimum = 9
	maximum = 1561
Network latency average = 442.165
	minimum = 9
	maximum = 543
Slowest packet = 7960
Flit latency average = 442.165
	minimum = 9
	maximum = 543
Slowest flit = 7960
Fragmentation average = 0
	minimum = 0
	maximum = 0
Injected packet rate average = 0.0791562
	minimum = 0.0775 (at node 117)
	maximum = 0.081 (at node 13)
Accepted packet rate average = 0.0621875
	minimum = 0.0605 (at node 138)
	maximum = 0.064 (at node 44)
Injected flit rate average = 0.0791562
	minimum = 0.0775 (at node 117)
	maximum = 0.081 (at node 13)
Accepted flit rate average= 0.0621875
	minimum = 0.0605 (at node 138)
	maximum = 0.064 (at node 44)
Injected packet length average = 1
Accepted packet length average = 1
Total in-flight flits = 8928 (0 measured)
latency change    = 0.498831
throughput change = 0.00502513
Class 0:
Packet latency average = 1802.85
	minimum = 1278
	maximum = 2328
Network latency average = 542.875
	minimum = 542
	maximum = 543
Slowest packet = 31615
Flit latency average = 542.875
	minimum = 542
	maximum = 543
Slowest flit = 31615
Fragmentation average = 0
	minimum = 0
	maximum = 0
Injected packet rate average = 0.0625
	minimum = 0.06 (at node 59)
	maximum = 0.064 (at node 6)
Accepted packet rate average = 0.0625
	minimum = 0.06 (at node 26)
	maximum = 0.064 (at node 8)
Injected flit rate average = 0.0625
	minimum = 0.06 (at node 59)
	maximum = 0.064 (at node 6)
Accepted flit rate average= 0.0625
	minimum = 0.06 (at node 26)
	maximum = 0.064 (at node 8)
Injected packet length average = 1
Accepted packet length average = 1
Total in-flight flits = 8928 (0 measured)
latency change    = 0.598447
throughput change = 0.005
Warmed up ...Time used is 3000 cycles
Class 0:
Packet latency average = 2725.61
	minimum = 2357
	maximum = 3079
Network latency average = 542.878
	minimum = 542
	maximum = 543
Slowest packet = 56783
Flit latency average = 542.875
	minimum = 542
	maximum = 543
Slowest flit = 47615
Fragmentation average = 0
	minimum = 0
	maximum = 0
Injected packet rate average = 0.0625
	minimum = 0.06 (at node 53)
	maximum = 0.064 (at node 0)
Accepted packet rate average = 0.0625
	minimum = 0.06 (at node 16)
	maximum = 0.064 (at node 4)
Injected flit rate average = 0.0625
	minimum = 0.06 (at node 53)
	maximum = 0.064 (at node 0)
Accepted flit rate average= 0.0625
	minimum = 0.06 (at node 16)
	maximum = 0.064 (at node 4)
Injected packet length average = 1
Accepted packet length average = 1
Total in-flight flits = 8928 (8928 measured)
latency change    = 0.338553
throughput change = 0
Class 0:
Packet latency average = 3087.44
	minimum = 2357
	maximum = 3794
Network latency average = 542.876
	minimum = 542
	maximum = 543
Slowest packet = 56783
Flit latency average = 542.875
	minimum = 542
	maximum = 543
Slowest flit = 47615
Fragmentation average = 0
	minimum = 0
	maximum = 0
Injected packet rate average = 0.0625
	minimum = 0.062 (at node 4)
	maximum = 0.064 (at node 235)
Accepted packet rate average = 0.0625
	minimum = 0.062 (at node 8)
	maximum = 0.064 (at node 28)
Injected flit rate average = 0.0625
	minimum = 0.062 (at node 4)
	maximum = 0.064 (at node 235)
Accepted flit rate average= 0.0625
	minimum = 0.062 (at node 8)
	maximum = 0.064 (at node 28)
Injected packet length average = 1
Accepted packet length average = 1
Total in-flight flits = 8928 (8928 measured)
latency change    = 0.117192
throughput change = 0
Class 0:
Packet latency average = 3448.59
	minimum = 2357
	maximum = 4514
Network latency average = 542.876
	minimum = 542
	maximum = 543
Slowest packet = 56783
Flit latency average = 542.875
	minimum = 542
	maximum = 543
Slowest flit = 47615
Fragmentation average = 0
	minimum = 0
	maximum = 0
Injected packet rate average = 0.0625
	minimum = 0.062 (at node 6)
	maximum = 0.0626667 (at node 0)
Accepted packet rate average = 0.0625
	minimum = 0.062 (at node 8)
	maximum = 0.0626667 (at node 0)
Injected flit rate average = 0.0625
	minimum = 0.062 (at node 6)
	maximum = 0.0626667 (at node 0)
Accepted flit rate average= 0.0625
	minimum = 0.062 (at node 8)
	maximum = 0.0626667 (at node 0)
Injected packet length average = 1
Accepted packet length average = 1
Total in-flight flits = 8928 (8928 measured)
latency change    = 0.104724
throughput change = 0
Draining remaining packets ...
Time taken is 6559 cycles
====== Overall Traffic Statistics ======
====== Traffic class 0 ======
Packet latency average = 3650.03 (1 samples)
	minimum = 2357 (1 samples)
	maximum = 4955 (1 samples)
Network latency average = 542.83 (1 samples)
	minimum = 505 (1 samples)
	maximum = 543 (1 samples)
Flit latency average = 542.837 (1 samples)
	minimum = 505 (1 samples)
	maximum = 543 (1 samples)
Fragmentation average = 0 (1 samples)
	minimum = 0 (1 samples)
	maximum = 0 (1 samples)
Injected packet rate average = 0.0625 (1 samples)
	minimum = 0.062 (1 samples)
	maximum = 0.0626667 (1 samples)
Accepted packet rate average = 0.0625 (1 samples)
	minimum = 0.062 (1 samples)
	maximum = 0.0626667 (1 samples)
Injected flit rate average = 0.0625 (1 samples)
	minimum = 0.062 (1 samples)
	maximum = 0.0626667 (1 samples)
Accepted flit rate average = 0.0625 (1 samples)
	minimum = 0.062 (1 samples)
	maximum = 0.0626667 (1 samples)
Injected packet size average = 1 (1 samples)
Accepted packet size average = 1 (1 samples)
Hops average = 2 (1 samples)
Total run time 35.5671
