BEGIN Configuration File: ../../../booksim2/src/examples/flatflyconfig
// $Id$

// Copyright (c) 2007-2015, Trustees of The Leland Stanford Junior University
// All rights reserved.
//
// Redistribution and use in source and binary forms, with or without
// modification, are permitted provided that the following conditions are met:
//
// Redistributions of source code must retain the above copyright notice, this
// list of conditions and the following disclaimer.
// Redistributions in binary form must reproduce the above copyright notice,
// this list of conditions and the following disclaimer in the documentation
// and/or other materials provided with the distribution.
//
// THIS SOFTWARE IS PROVIDED BY THE COPYRIGHT HOLDERS AND CONTRIBUTORS "AS IS"
// AND ANY EXPRESS OR IMPLIED WARRANTIES, INCLUDING, BUT NOT LIMITED TO, THE
// IMPLIED WARRANTIES OF MERCHANTABILITY AND FITNESS FOR A PARTICULAR PURPOSE
// ARE DISCLAIMED. IN NO EVENT SHALL THE COPYRIGHT OWNER OR CONTRIBUTORS BE
// LIABLE FOR ANY DIRECT, INDIRECT, INCIDENTAL, SPECIAL, EXEMPLARY, OR
// CONSEQUENTIAL DAMAGES (INCLUDING, BUT NOT LIMITED TO, PROCUREMENT OF
// SUBSTITUTE GOODS OR SERVICES; LOSS OF USE, DATA, OR PROFITS; OR BUSINESS
// INTERRUPTION) HOWEVER CAUSED AND ON ANY THEORY OF LIABILITY, WHETHER IN
// CONTRACT, STRICT LIABILITY, OR TORT (INCLUDING NEGLIGENCE OR OTHERWISE)
// ARISING IN ANY WAY OUT OF THE USE OF THIS SOFTWARE, EVEN IF ADVISED OF THE
// POSSIBILITY OF SUCH DAMAGE.

//A flattened butterfly configurate file with many tweaks from the
//default settings. 


// Flow control
// Total number of VCs must match the above assignments
num_vcs     = 2;
vc_buf_size = 16;

wait_for_tail_credit = 0;

//
// Router architectureq
//
vc_allocator = islip; 
sw_allocator = islip;
alloc_iters  = 3;

credit_delay   = 0;
routing_delay  = 1;
vc_alloc_delay = 1;
sw_alloc_delay = 1;
st_final_delay = 1;

input_speedup     = 1;
output_speedup    = 1;
internal_speedup  = 1.6;

//
// Traffic
//

warmup_periods = 3;

sample_period  = 1000;  

sim_count          = 1;

traffic       = uniform;


// Flatfly 
//
// #node = k^(n+1)
//
// x, y, specifies the arrangement of routers in x and y dim
// xr, yr specifiies the arayment of clients in a router
//
topology = flatfly;
subnets = 1;

c  = 16;
k  = 16;
n  = 1;

x  = 16;
y  = 1;
xr = 16;
yr = 1;

use_noc_latency = 0;

//
// Routing
//

routing_function = ran_min;

//1: batch mode, 0: injection mode
use_read_write = 0;

//for injection mode
packet_size = 1;
injection_rate = 0.1;

//for batch mode
read_request_size=1;
write_request_size=1;
read_reply_size=1;
write_reply_size=1;

read_request_begin_vc  = 0;
read_request_end_vc    = 3;
write_reply_begin_vc   = 4;
write_reply_end_vc     = 7;
read_reply_begin_vc    = 4;
read_reply_end_vc      = 7;
write_request_begin_vc = 0;
write_request_end_vc   = 3;

//latency: drains all packet, throughput:no drain?
sim_type = latency;

END Configuration File: ../../../booksim2/src/examples/flatflyconfig
OVERRIDE Parameter: sim_type=latency
OVERRIDE Parameter: traffic=uniform
OVERRIDE Parameter: injection_rate={0.9}
 Flat Bufferfly 
 k = 16 n = 1 c = 16
 each switch - total radix =  31
 # of switches = 16
 # of channels = 240
 # of nodes ( size of network ) = 256
Class 0:
Packet latency average = 84.4457
	minimum = 5
	maximum = 226
Network latency average = 53.7556
	minimum = 5
	maximum = 117
Slowest packet = 38137
Flit latency average = 53.7556
	minimum = 5
	maximum = 117
Slowest flit = 124152
Fragmentation average = 0
	minimum = 0
	maximum = 0
Injected packet rate average = 0.80827
	minimum = 0.758 (at node 234)
	maximum = 0.853 (at node 10)
Accepted packet rate average = 0.759785
	minimum = 0.686 (at node 110)
	maximum = 0.831 (at node 65)
Injected flit rate average = 0.80827
	minimum = 0.758 (at node 234)
	maximum = 0.853 (at node 10)
Accepted flit rate average= 0.759785
	minimum = 0.686 (at node 110)
	maximum = 0.831 (at node 65)
Injected packet length average = 1
Accepted packet length average = 1
Total in-flight flits = 12492 (0 measured)
latency change    = 1
throughput change = 1
Class 0:
Packet latency average = 155.615
	minimum = 5
	maximum = 408
Network latency average = 58.284
	minimum = 5
	maximum = 140
Slowest packet = 38137
Flit latency average = 58.284
	minimum = 5
	maximum = 140
Slowest flit = 373395
Fragmentation average = 0
	minimum = 0
	maximum = 0
Injected packet rate average = 0.79001
	minimum = 0.755 (at node 234)
	maximum = 0.8235 (at node 178)
Accepted packet rate average = 0.765889
	minimum = 0.7125 (at node 21)
	maximum = 0.8215 (at node 68)
Injected flit rate average = 0.79001
	minimum = 0.755 (at node 234)
	maximum = 0.8235 (at node 178)
Accepted flit rate average= 0.765889
	minimum = 0.7125 (at node 21)
	maximum = 0.8215 (at node 68)
Injected packet length average = 1
Accepted packet length average = 1
Total in-flight flits = 12433 (0 measured)
latency change    = 0.457342
throughput change = 0.00796919
Class 0:
Packet latency average = 369.245
	minimum = 199
	maximum = 553
Network latency average = 62.6754
	minimum = 30
	maximum = 134
Slowest packet = 395118
Flit latency average = 62.6754
	minimum = 30
	maximum = 134
Slowest flit = 409464
Fragmentation average = 0
	minimum = 0
	maximum = 0
Injected packet rate average = 0.769855
	minimum = 0.709 (at node 75)
	maximum = 0.803 (at node 179)
Accepted packet rate average = 0.770488
	minimum = 0.694 (at node 186)
	maximum = 0.877 (at node 174)
Injected flit rate average = 0.769855
	minimum = 0.709 (at node 75)
	maximum = 0.803 (at node 179)
Accepted flit rate average= 0.770488
	minimum = 0.694 (at node 186)
	maximum = 0.877 (at node 174)
Injected packet length average = 1
Accepted packet length average = 1
Total in-flight flits = 12269 (0 measured)
latency change    = 0.57856
throughput change = 0.00596973
Warmed up ...Time used is 3000 cycles
Class 0:
Packet latency average = 518.182
	minimum = 330
	maximum = 695
Network latency average = 62.4814
	minimum = 31
	maximum = 126
Slowest packet = 601686
Flit latency average = 62.6583
	minimum = 31
	maximum = 126
Slowest flit = 705226
Fragmentation average = 0
	minimum = 0
	maximum = 0
Injected packet rate average = 0.771863
	minimum = 0.739 (at node 227)
	maximum = 0.803 (at node 169)
Accepted packet rate average = 0.77077
	minimum = 0.685 (at node 126)
	maximum = 0.849 (at node 52)
Injected flit rate average = 0.771863
	minimum = 0.739 (at node 227)
	maximum = 0.803 (at node 169)
Accepted flit rate average= 0.77077
	minimum = 0.685 (at node 126)
	maximum = 0.849 (at node 52)
Injected packet length average = 1
Accepted packet length average = 1
Total in-flight flits = 12563 (12563 measured)
latency change    = 0.287421
throughput change = 0.000364895
Average latency for class 0 exceeded 500 cycles. Aborting simulation.
Too many sample periods needed to converge
Simulation unstable, ending ...
Total run time 5.11426
