BEGIN Configuration File: ../../../booksim2/src/examples/flatflyconfig
// $Id$

// Copyright (c) 2007-2015, Trustees of The Leland Stanford Junior University
// All rights reserved.
//
// Redistribution and use in source and binary forms, with or without
// modification, are permitted provided that the following conditions are met:
//
// Redistributions of source code must retain the above copyright notice, this
// list of conditions and the following disclaimer.
// Redistributions in binary form must reproduce the above copyright notice,
// this list of conditions and the following disclaimer in the documentation
// and/or other materials provided with the distribution.
//
// THIS SOFTWARE IS PROVIDED BY THE COPYRIGHT HOLDERS AND CONTRIBUTORS "AS IS"
// AND ANY EXPRESS OR IMPLIED WARRANTIES, INCLUDING, BUT NOT LIMITED TO, THE
// IMPLIED WARRANTIES OF MERCHANTABILITY AND FITNESS FOR A PARTICULAR PURPOSE
// ARE DISCLAIMED. IN NO EVENT SHALL THE COPYRIGHT OWNER OR CONTRIBUTORS BE
// LIABLE FOR ANY DIRECT, INDIRECT, INCIDENTAL, SPECIAL, EXEMPLARY, OR
// CONSEQUENTIAL DAMAGES (INCLUDING, BUT NOT LIMITED TO, PROCUREMENT OF
// SUBSTITUTE GOODS OR SERVICES; LOSS OF USE, DATA, OR PROFITS; OR BUSINESS
// INTERRUPTION) HOWEVER CAUSED AND ON ANY THEORY OF LIABILITY, WHETHER IN
// CONTRACT, STRICT LIABILITY, OR TORT (INCLUDING NEGLIGENCE OR OTHERWISE)
// ARISING IN ANY WAY OUT OF THE USE OF THIS SOFTWARE, EVEN IF ADVISED OF THE
// POSSIBILITY OF SUCH DAMAGE.

//A flattened butterfly configurate file with many tweaks from the
//default settings. 


// Flow control
// Total number of VCs must match the above assignments
num_vcs     = 2;
vc_buf_size = 16;

wait_for_tail_credit = 0;

//
// Router architectureq
//
vc_allocator = islip; 
sw_allocator = islip;
alloc_iters  = 3;

credit_delay   = 0;
routing_delay  = 1;
vc_alloc_delay = 1;
sw_alloc_delay = 1;
st_final_delay = 1;

input_speedup     = 1;
output_speedup    = 1;
internal_speedup  = 1.6;

//
// Traffic
//

warmup_periods = 3;

sample_period  = 1000;  

sim_count          = 1;

traffic       = uniform;


// Flatfly 
//
// #node = k^(n+1)
//
// x, y, specifies the arrangement of routers in x and y dim
// xr, yr specifiies the arayment of clients in a router
//
topology = flatfly;
subnets = 1;

c  = 16;
k  = 16;
n  = 1;

x  = 16;
y  = 1;
xr = 16;
yr = 1;

use_noc_latency = 0;

//
// Routing
//

routing_function = ran_min;

//1: batch mode, 0: injection mode
use_read_write = 0;

//for injection mode
packet_size = 1;
injection_rate = 0.1;

//for batch mode
read_request_size=1;
write_request_size=1;
read_reply_size=1;
write_reply_size=1;

read_request_begin_vc  = 0;
read_request_end_vc    = 3;
write_reply_begin_vc   = 4;
write_reply_end_vc     = 7;
read_reply_begin_vc    = 4;
read_reply_end_vc      = 7;
write_request_begin_vc = 0;
write_request_end_vc   = 3;

//latency: drains all packet, throughput:no drain?
sim_type = latency;

END Configuration File: ../../../booksim2/src/examples/flatflyconfig
OVERRIDE Parameter: sim_type=latency
OVERRIDE Parameter: traffic=uniform
OVERRIDE Parameter: injection_rate={0.075}
 Flat Bufferfly 
 k = 16 n = 1 c = 16
 each switch - total radix =  31
 # of switches = 16
 # of channels = 240
 # of nodes ( size of network ) = 256
Class 0:
Packet latency average = 9.49539
	minimum = 5
	maximum = 14
Network latency average = 9.49539
	minimum = 5
	maximum = 14
Slowest packet = 7049
Flit latency average = 9.49539
	minimum = 5
	maximum = 14
Slowest flit = 7049
Fragmentation average = 0
	minimum = 0
	maximum = 0
Injected packet rate average = 0.0745
	minimum = 0.054 (at node 91)
	maximum = 0.098 (at node 0)
Accepted packet rate average = 0.0736641
	minimum = 0.041 (at node 15)
	maximum = 0.095 (at node 101)
Injected flit rate average = 0.0745
	minimum = 0.054 (at node 91)
	maximum = 0.098 (at node 0)
Accepted flit rate average= 0.0736641
	minimum = 0.041 (at node 15)
	maximum = 0.095 (at node 101)
Injected packet length average = 1
Accepted packet length average = 1
Total in-flight flits = 214 (0 measured)
latency change    = 1
throughput change = 1
Class 0:
Packet latency average = 9.49834
	minimum = 5
	maximum = 14
Network latency average = 9.49834
	minimum = 5
	maximum = 14
Slowest packet = 7049
Flit latency average = 9.49834
	minimum = 5
	maximum = 14
Slowest flit = 7049
Fragmentation average = 0
	minimum = 0
	maximum = 0
Injected packet rate average = 0.0745059
	minimum = 0.0585 (at node 9)
	maximum = 0.0915 (at node 36)
Accepted packet rate average = 0.0741328
	minimum = 0.057 (at node 15)
	maximum = 0.095 (at node 248)
Injected flit rate average = 0.0745059
	minimum = 0.0585 (at node 9)
	maximum = 0.0915 (at node 36)
Accepted flit rate average= 0.0741328
	minimum = 0.057 (at node 15)
	maximum = 0.095 (at node 248)
Injected packet length average = 1
Accepted packet length average = 1
Total in-flight flits = 191 (0 measured)
latency change    = 0.000310961
throughput change = 0.00632311
Class 0:
Packet latency average = 9.51201
	minimum = 5
	maximum = 13
Network latency average = 9.51201
	minimum = 5
	maximum = 13
Slowest packet = 41240
Flit latency average = 9.51201
	minimum = 5
	maximum = 13
Slowest flit = 41240
Fragmentation average = 0
	minimum = 0
	maximum = 0
Injected packet rate average = 0.0758125
	minimum = 0.053 (at node 8)
	maximum = 0.099 (at node 78)
Accepted packet rate average = 0.0757969
	minimum = 0.053 (at node 88)
	maximum = 0.1 (at node 72)
Injected flit rate average = 0.0758125
	minimum = 0.053 (at node 8)
	maximum = 0.099 (at node 78)
Accepted flit rate average= 0.0757969
	minimum = 0.053 (at node 88)
	maximum = 0.1 (at node 72)
Injected packet length average = 1
Accepted packet length average = 1
Total in-flight flits = 195 (0 measured)
latency change    = 0.00143688
throughput change = 0.0219542
Warmed up ...Time used is 3000 cycles
Class 0:
Packet latency average = 9.49442
	minimum = 5
	maximum = 15
Network latency average = 9.49442
	minimum = 5
	maximum = 15
Slowest packet = 75362
Flit latency average = 9.49627
	minimum = 5
	maximum = 15
Slowest flit = 75362
Fragmentation average = 0
	minimum = 0
	maximum = 0
Injected packet rate average = 0.074875
	minimum = 0.05 (at node 92)
	maximum = 0.107 (at node 189)
Accepted packet rate average = 0.074957
	minimum = 0.055 (at node 160)
	maximum = 0.099 (at node 189)
Injected flit rate average = 0.074875
	minimum = 0.05 (at node 92)
	maximum = 0.107 (at node 189)
Accepted flit rate average= 0.074957
	minimum = 0.055 (at node 160)
	maximum = 0.099 (at node 189)
Injected packet length average = 1
Accepted packet length average = 1
Total in-flight flits = 174 (174 measured)
latency change    = 0.00185251
throughput change = 0.0112043
Class 0:
Packet latency average = 9.49953
	minimum = 5
	maximum = 15
Network latency average = 9.49953
	minimum = 5
	maximum = 15
Slowest packet = 75362
Flit latency average = 9.50043
	minimum = 5
	maximum = 15
Slowest flit = 75362
Fragmentation average = 0
	minimum = 0
	maximum = 0
Injected packet rate average = 0.0750195
	minimum = 0.0585 (at node 14)
	maximum = 0.0925 (at node 165)
Accepted packet rate average = 0.0750371
	minimum = 0.058 (at node 216)
	maximum = 0.092 (at node 85)
Injected flit rate average = 0.0750195
	minimum = 0.0585 (at node 14)
	maximum = 0.0925 (at node 165)
Accepted flit rate average= 0.0750371
	minimum = 0.058 (at node 216)
	maximum = 0.092 (at node 85)
Injected packet length average = 1
Accepted packet length average = 1
Total in-flight flits = 186 (186 measured)
latency change    = 0.0005379
throughput change = 0.00106718
Class 0:
Packet latency average = 9.49869
	minimum = 5
	maximum = 15
Network latency average = 9.49869
	minimum = 5
	maximum = 15
Slowest packet = 75362
Flit latency average = 9.49929
	minimum = 5
	maximum = 15
Slowest flit = 75362
Fragmentation average = 0
	minimum = 0
	maximum = 0
Injected packet rate average = 0.0752995
	minimum = 0.0596667 (at node 225)
	maximum = 0.0863333 (at node 118)
Accepted packet rate average = 0.0753229
	minimum = 0.061 (at node 216)
	maximum = 0.089 (at node 55)
Injected flit rate average = 0.0752995
	minimum = 0.0596667 (at node 225)
	maximum = 0.0863333 (at node 118)
Accepted flit rate average= 0.0753229
	minimum = 0.061 (at node 216)
	maximum = 0.089 (at node 55)
Injected packet length average = 1
Accepted packet length average = 1
Total in-flight flits = 177 (177 measured)
latency change    = 8.82912e-05
throughput change = 0.00379443
Draining all recorded packets ...
Draining remaining packets ...
Time taken is 6024 cycles
====== Overall Traffic Statistics ======
====== Traffic class 0 ======
Packet latency average = 9.49863 (1 samples)
	minimum = 5 (1 samples)
	maximum = 15 (1 samples)
Network latency average = 9.49863 (1 samples)
	minimum = 5 (1 samples)
	maximum = 15 (1 samples)
Flit latency average = 9.49914 (1 samples)
	minimum = 5 (1 samples)
	maximum = 15 (1 samples)
Fragmentation average = 0 (1 samples)
	minimum = 0 (1 samples)
	maximum = 0 (1 samples)
Injected packet rate average = 0.0752995 (1 samples)
	minimum = 0.0596667 (1 samples)
	maximum = 0.0863333 (1 samples)
Accepted packet rate average = 0.0753229 (1 samples)
	minimum = 0.061 (1 samples)
	maximum = 0.089 (1 samples)
Injected flit rate average = 0.0752995 (1 samples)
	minimum = 0.0596667 (1 samples)
	maximum = 0.0863333 (1 samples)
Accepted flit rate average = 0.0753229 (1 samples)
	minimum = 0.061 (1 samples)
	maximum = 0.089 (1 samples)
Injected packet size average = 1 (1 samples)
Accepted packet size average = 1 (1 samples)
Hops average = 1.93889 (1 samples)
Total run time 0.96318
