BEGIN Configuration File: ../../../booksim2/src/examples/flatflyconfig
// $Id$

// Copyright (c) 2007-2015, Trustees of The Leland Stanford Junior University
// All rights reserved.
//
// Redistribution and use in source and binary forms, with or without
// modification, are permitted provided that the following conditions are met:
//
// Redistributions of source code must retain the above copyright notice, this
// list of conditions and the following disclaimer.
// Redistributions in binary form must reproduce the above copyright notice,
// this list of conditions and the following disclaimer in the documentation
// and/or other materials provided with the distribution.
//
// THIS SOFTWARE IS PROVIDED BY THE COPYRIGHT HOLDERS AND CONTRIBUTORS "AS IS"
// AND ANY EXPRESS OR IMPLIED WARRANTIES, INCLUDING, BUT NOT LIMITED TO, THE
// IMPLIED WARRANTIES OF MERCHANTABILITY AND FITNESS FOR A PARTICULAR PURPOSE
// ARE DISCLAIMED. IN NO EVENT SHALL THE COPYRIGHT OWNER OR CONTRIBUTORS BE
// LIABLE FOR ANY DIRECT, INDIRECT, INCIDENTAL, SPECIAL, EXEMPLARY, OR
// CONSEQUENTIAL DAMAGES (INCLUDING, BUT NOT LIMITED TO, PROCUREMENT OF
// SUBSTITUTE GOODS OR SERVICES; LOSS OF USE, DATA, OR PROFITS; OR BUSINESS
// INTERRUPTION) HOWEVER CAUSED AND ON ANY THEORY OF LIABILITY, WHETHER IN
// CONTRACT, STRICT LIABILITY, OR TORT (INCLUDING NEGLIGENCE OR OTHERWISE)
// ARISING IN ANY WAY OUT OF THE USE OF THIS SOFTWARE, EVEN IF ADVISED OF THE
// POSSIBILITY OF SUCH DAMAGE.

//A flattened butterfly configurate file with many tweaks from the
//default settings. 


// Flow control
// Total number of VCs must match the above assignments
num_vcs     = 2;
vc_buf_size = 16;

wait_for_tail_credit = 0;

//
// Router architectureq
//
vc_allocator = islip; 
sw_allocator = islip;
alloc_iters  = 3;

credit_delay   = 0;
routing_delay  = 1;
vc_alloc_delay = 1;
sw_alloc_delay = 1;
st_final_delay = 1;

input_speedup     = 1;
output_speedup    = 1;
internal_speedup  = 1.6;

//
// Traffic
//

warmup_periods = 3;

sample_period  = 1000;  

sim_count          = 1;

traffic       = uniform;


// Flatfly 
//
// #node = k^(n+1)
//
// x, y, specifies the arrangement of routers in x and y dim
// xr, yr specifiies the arayment of clients in a router
//
topology = flatfly;
subnets = 1;

c  = 16;
k  = 16;
n  = 1;

x  = 16;
y  = 1;
xr = 16;
yr = 1;

use_noc_latency = 0;

//
// Routing
//

routing_function = ran_min;

//1: batch mode, 0: injection mode
use_read_write = 0;

//for injection mode
packet_size = 1;
injection_rate = 0.1;

//for batch mode
read_request_size=1;
write_request_size=1;
read_reply_size=1;
write_reply_size=1;

read_request_begin_vc  = 0;
read_request_end_vc    = 3;
write_reply_begin_vc   = 4;
write_reply_end_vc     = 7;
read_reply_begin_vc    = 4;
read_reply_end_vc      = 7;
write_request_begin_vc = 0;
write_request_end_vc   = 3;

//latency: drains all packet, throughput:no drain?
sim_type = latency;

END Configuration File: ../../../booksim2/src/examples/flatflyconfig
OVERRIDE Parameter: sim_type=latency
OVERRIDE Parameter: traffic=uniform
OVERRIDE Parameter: injection_rate={0.275}
 Flat Bufferfly 
 k = 16 n = 1 c = 16
 each switch - total radix =  31
 # of switches = 16
 # of channels = 240
 # of nodes ( size of network ) = 256
Class 0:
Packet latency average = 9.94792
	minimum = 5
	maximum = 18
Network latency average = 9.94792
	minimum = 5
	maximum = 18
Slowest packet = 34850
Flit latency average = 9.94792
	minimum = 5
	maximum = 18
Slowest flit = 34850
Fragmentation average = 0
	minimum = 0
	maximum = 0
Injected packet rate average = 0.27425
	minimum = 0.238 (at node 104)
	maximum = 0.314 (at node 141)
Accepted packet rate average = 0.271305
	minimum = 0.232 (at node 95)
	maximum = 0.319 (at node 65)
Injected flit rate average = 0.27425
	minimum = 0.238 (at node 104)
	maximum = 0.314 (at node 141)
Accepted flit rate average= 0.271305
	minimum = 0.232 (at node 95)
	maximum = 0.319 (at node 65)
Injected packet length average = 1
Accepted packet length average = 1
Total in-flight flits = 754 (0 measured)
latency change    = 1
throughput change = 1
Class 0:
Packet latency average = 9.94663
	minimum = 5
	maximum = 19
Network latency average = 9.94663
	minimum = 5
	maximum = 19
Slowest packet = 74083
Flit latency average = 9.94663
	minimum = 5
	maximum = 19
Slowest flit = 74083
Fragmentation average = 0
	minimum = 0
	maximum = 0
Injected packet rate average = 0.274557
	minimum = 0.2525 (at node 175)
	maximum = 0.3025 (at node 189)
Accepted packet rate average = 0.273152
	minimum = 0.239 (at node 110)
	maximum = 0.312 (at node 186)
Injected flit rate average = 0.274557
	minimum = 0.2525 (at node 175)
	maximum = 0.3025 (at node 189)
Accepted flit rate average= 0.273152
	minimum = 0.239 (at node 110)
	maximum = 0.312 (at node 186)
Injected packet length average = 1
Accepted packet length average = 1
Total in-flight flits = 719 (0 measured)
latency change    = 0.000129924
throughput change = 0.0067642
Class 0:
Packet latency average = 9.95
	minimum = 5
	maximum = 18
Network latency average = 9.95
	minimum = 5
	maximum = 18
Slowest packet = 168599
Flit latency average = 9.95
	minimum = 5
	maximum = 18
Slowest flit = 168599
Fragmentation average = 0
	minimum = 0
	maximum = 0
Injected packet rate average = 0.274867
	minimum = 0.239 (at node 252)
	maximum = 0.312 (at node 45)
Accepted packet rate average = 0.274715
	minimum = 0.234 (at node 217)
	maximum = 0.323 (at node 156)
Injected flit rate average = 0.274867
	minimum = 0.239 (at node 252)
	maximum = 0.312 (at node 45)
Accepted flit rate average= 0.274715
	minimum = 0.234 (at node 217)
	maximum = 0.323 (at node 156)
Injected packet length average = 1
Accepted packet length average = 1
Total in-flight flits = 758 (0 measured)
latency change    = 0.000339188
throughput change = 0.00568772
Warmed up ...Time used is 3000 cycles
Class 0:
Packet latency average = 9.94673
	minimum = 5
	maximum = 17
Network latency average = 9.94673
	minimum = 5
	maximum = 17
Slowest packet = 217413
Flit latency average = 9.94942
	minimum = 5
	maximum = 17
Slowest flit = 217413
Fragmentation average = 0
	minimum = 0
	maximum = 0
Injected packet rate average = 0.274836
	minimum = 0.232 (at node 240)
	maximum = 0.314 (at node 36)
Accepted packet rate average = 0.275168
	minimum = 0.234 (at node 114)
	maximum = 0.312 (at node 120)
Injected flit rate average = 0.274836
	minimum = 0.232 (at node 240)
	maximum = 0.314 (at node 36)
Accepted flit rate average= 0.275168
	minimum = 0.234 (at node 114)
	maximum = 0.312 (at node 120)
Injected packet length average = 1
Accepted packet length average = 1
Total in-flight flits = 673 (673 measured)
latency change    = 0.000329078
throughput change = 0.00164672
Class 0:
Packet latency average = 9.94496
	minimum = 5
	maximum = 18
Network latency average = 9.94496
	minimum = 5
	maximum = 18
Slowest packet = 312233
Flit latency average = 9.94631
	minimum = 5
	maximum = 18
Slowest flit = 312233
Fragmentation average = 0
	minimum = 0
	maximum = 0
Injected packet rate average = 0.274555
	minimum = 0.244 (at node 42)
	maximum = 0.3035 (at node 204)
Accepted packet rate average = 0.274602
	minimum = 0.227 (at node 21)
	maximum = 0.3065 (at node 180)
Injected flit rate average = 0.274555
	minimum = 0.244 (at node 42)
	maximum = 0.3035 (at node 204)
Accepted flit rate average= 0.274602
	minimum = 0.227 (at node 21)
	maximum = 0.3065 (at node 180)
Injected packet length average = 1
Accepted packet length average = 1
Total in-flight flits = 734 (734 measured)
latency change    = 0.00017838
throughput change = 0.00206265
Class 0:
Packet latency average = 9.94577
	minimum = 5
	maximum = 18
Network latency average = 9.94577
	minimum = 5
	maximum = 18
Slowest packet = 312233
Flit latency average = 9.94667
	minimum = 5
	maximum = 18
Slowest flit = 312233
Fragmentation average = 0
	minimum = 0
	maximum = 0
Injected packet rate average = 0.274793
	minimum = 0.248 (at node 42)
	maximum = 0.303333 (at node 204)
Accepted packet rate average = 0.274835
	minimum = 0.253667 (at node 20)
	maximum = 0.306333 (at node 244)
Injected flit rate average = 0.274793
	minimum = 0.248 (at node 42)
	maximum = 0.303333 (at node 204)
Accepted flit rate average= 0.274835
	minimum = 0.253667 (at node 20)
	maximum = 0.306333 (at node 244)
Injected packet length average = 1
Accepted packet length average = 1
Total in-flight flits = 726 (726 measured)
latency change    = 8.1852e-05
throughput change = 0.000848048
Draining all recorded packets ...
Draining remaining packets ...
Time taken is 6027 cycles
====== Overall Traffic Statistics ======
====== Traffic class 0 ======
Packet latency average = 9.94627 (1 samples)
	minimum = 5 (1 samples)
	maximum = 18 (1 samples)
Network latency average = 9.94627 (1 samples)
	minimum = 5 (1 samples)
	maximum = 18 (1 samples)
Flit latency average = 9.94705 (1 samples)
	minimum = 5 (1 samples)
	maximum = 18 (1 samples)
Fragmentation average = 0 (1 samples)
	minimum = 0 (1 samples)
	maximum = 0 (1 samples)
Injected packet rate average = 0.274793 (1 samples)
	minimum = 0.248 (1 samples)
	maximum = 0.303333 (1 samples)
Accepted packet rate average = 0.274835 (1 samples)
	minimum = 0.253667 (1 samples)
	maximum = 0.306333 (1 samples)
Injected flit rate average = 0.274793 (1 samples)
	minimum = 0.248 (1 samples)
	maximum = 0.303333 (1 samples)
Accepted flit rate average = 0.274835 (1 samples)
	minimum = 0.253667 (1 samples)
	maximum = 0.306333 (1 samples)
Injected packet size average = 1 (1 samples)
Accepted packet size average = 1 (1 samples)
Hops average = 1.93731 (1 samples)
Total run time 2.77127
