BEGIN Configuration File: ../../../booksim2/src/examples/flatflyconfig
// $Id$

// Copyright (c) 2007-2015, Trustees of The Leland Stanford Junior University
// All rights reserved.
//
// Redistribution and use in source and binary forms, with or without
// modification, are permitted provided that the following conditions are met:
//
// Redistributions of source code must retain the above copyright notice, this
// list of conditions and the following disclaimer.
// Redistributions in binary form must reproduce the above copyright notice,
// this list of conditions and the following disclaimer in the documentation
// and/or other materials provided with the distribution.
//
// THIS SOFTWARE IS PROVIDED BY THE COPYRIGHT HOLDERS AND CONTRIBUTORS "AS IS"
// AND ANY EXPRESS OR IMPLIED WARRANTIES, INCLUDING, BUT NOT LIMITED TO, THE
// IMPLIED WARRANTIES OF MERCHANTABILITY AND FITNESS FOR A PARTICULAR PURPOSE
// ARE DISCLAIMED. IN NO EVENT SHALL THE COPYRIGHT OWNER OR CONTRIBUTORS BE
// LIABLE FOR ANY DIRECT, INDIRECT, INCIDENTAL, SPECIAL, EXEMPLARY, OR
// CONSEQUENTIAL DAMAGES (INCLUDING, BUT NOT LIMITED TO, PROCUREMENT OF
// SUBSTITUTE GOODS OR SERVICES; LOSS OF USE, DATA, OR PROFITS; OR BUSINESS
// INTERRUPTION) HOWEVER CAUSED AND ON ANY THEORY OF LIABILITY, WHETHER IN
// CONTRACT, STRICT LIABILITY, OR TORT (INCLUDING NEGLIGENCE OR OTHERWISE)
// ARISING IN ANY WAY OUT OF THE USE OF THIS SOFTWARE, EVEN IF ADVISED OF THE
// POSSIBILITY OF SUCH DAMAGE.

//A flattened butterfly configurate file with many tweaks from the
//default settings. 


// Flow control
// Total number of VCs must match the above assignments
num_vcs     = 2;
vc_buf_size = 16;

wait_for_tail_credit = 0;

//
// Router architectureq
//
vc_allocator = islip; 
sw_allocator = islip;
alloc_iters  = 3;

credit_delay   = 0;
routing_delay  = 1;
vc_alloc_delay = 1;
sw_alloc_delay = 1;
st_final_delay = 1;

input_speedup     = 1;
output_speedup    = 1;
internal_speedup  = 1.6;

//
// Traffic
//

warmup_periods = 3;

sample_period  = 1000;  

sim_count          = 1;

traffic       = uniform;


// Flatfly 
//
// #node = k^(n+1)
//
// x, y, specifies the arrangement of routers in x and y dim
// xr, yr specifiies the arayment of clients in a router
//
topology = flatfly;
subnets = 1;

c  = 16;
k  = 16;
n  = 1;

x  = 16;
y  = 1;
xr = 16;
yr = 1;

use_noc_latency = 0;

//
// Routing
//

routing_function = ran_min;

//1: batch mode, 0: injection mode
use_read_write = 0;

//for injection mode
packet_size = 1;
injection_rate = 0.1;

//for batch mode
read_request_size=1;
write_request_size=1;
read_reply_size=1;
write_reply_size=1;

read_request_begin_vc  = 0;
read_request_end_vc    = 3;
write_reply_begin_vc   = 4;
write_reply_end_vc     = 7;
read_reply_begin_vc    = 4;
read_reply_end_vc      = 7;
write_request_begin_vc = 0;
write_request_end_vc   = 3;

//latency: drains all packet, throughput:no drain?
sim_type = latency;

END Configuration File: ../../../booksim2/src/examples/flatflyconfig
OVERRIDE Parameter: sim_type=latency
OVERRIDE Parameter: traffic=uniform
OVERRIDE Parameter: injection_rate={0.675}
 Flat Bufferfly 
 k = 16 n = 1 c = 16
 each switch - total radix =  31
 # of switches = 16
 # of channels = 240
 # of nodes ( size of network ) = 256
Class 0:
Packet latency average = 15.6446
	minimum = 5
	maximum = 56
Network latency average = 15.6446
	minimum = 5
	maximum = 56
Slowest packet = 83698
Flit latency average = 15.6446
	minimum = 5
	maximum = 56
Slowest flit = 83698
Fragmentation average = 0
	minimum = 0
	maximum = 0
Injected packet rate average = 0.674297
	minimum = 0.63 (at node 172)
	maximum = 0.711 (at node 26)
Accepted packet rate average = 0.663449
	minimum = 0.6 (at node 95)
	maximum = 0.733 (at node 186)
Injected flit rate average = 0.674297
	minimum = 0.63 (at node 172)
	maximum = 0.711 (at node 26)
Accepted flit rate average= 0.663449
	minimum = 0.6 (at node 95)
	maximum = 0.733 (at node 186)
Injected packet length average = 1
Accepted packet length average = 1
Total in-flight flits = 2777 (0 measured)
latency change    = 1
throughput change = 1
Class 0:
Packet latency average = 15.7843
	minimum = 5
	maximum = 56
Network latency average = 15.7843
	minimum = 5
	maximum = 56
Slowest packet = 83698
Flit latency average = 15.7843
	minimum = 5
	maximum = 56
Slowest flit = 83698
Fragmentation average = 0
	minimum = 0
	maximum = 0
Injected packet rate average = 0.6744
	minimum = 0.645 (at node 172)
	maximum = 0.7025 (at node 215)
Accepted packet rate average = 0.668863
	minimum = 0.6115 (at node 21)
	maximum = 0.716 (at node 65)
Injected flit rate average = 0.6744
	minimum = 0.645 (at node 172)
	maximum = 0.7025 (at node 215)
Accepted flit rate average= 0.668863
	minimum = 0.6115 (at node 21)
	maximum = 0.716 (at node 65)
Injected packet length average = 1
Accepted packet length average = 1
Total in-flight flits = 2835 (0 measured)
latency change    = 0.00885312
throughput change = 0.00809442
Class 0:
Packet latency average = 16.0405
	minimum = 5
	maximum = 58
Network latency average = 16.0405
	minimum = 5
	maximum = 58
Slowest packet = 495979
Flit latency average = 16.0405
	minimum = 5
	maximum = 58
Slowest flit = 495979
Fragmentation average = 0
	minimum = 0
	maximum = 0
Injected packet rate average = 0.674773
	minimum = 0.63 (at node 58)
	maximum = 0.724 (at node 149)
Accepted packet rate average = 0.674809
	minimum = 0.606 (at node 62)
	maximum = 0.762 (at node 174)
Injected flit rate average = 0.674773
	minimum = 0.63 (at node 58)
	maximum = 0.724 (at node 149)
Accepted flit rate average= 0.674809
	minimum = 0.606 (at node 62)
	maximum = 0.762 (at node 174)
Injected packet length average = 1
Accepted packet length average = 1
Total in-flight flits = 2826 (0 measured)
latency change    = 0.0159697
throughput change = 0.00881037
Warmed up ...Time used is 3000 cycles
Class 0:
Packet latency average = 16.3327
	minimum = 5
	maximum = 54
Network latency average = 16.3327
	minimum = 5
	maximum = 54
Slowest packet = 538046
Flit latency average = 16.3816
	minimum = 5
	maximum = 54
Slowest flit = 538046
Fragmentation average = 0
	minimum = 0
	maximum = 0
Injected packet rate average = 0.676027
	minimum = 0.636 (at node 15)
	maximum = 0.711 (at node 66)
Accepted packet rate average = 0.67623
	minimum = 0.596 (at node 53)
	maximum = 0.752 (at node 255)
Injected flit rate average = 0.676027
	minimum = 0.636 (at node 15)
	maximum = 0.711 (at node 66)
Accepted flit rate average= 0.67623
	minimum = 0.596 (at node 53)
	maximum = 0.752 (at node 255)
Injected packet length average = 1
Accepted packet length average = 1
Total in-flight flits = 2774 (2774 measured)
latency change    = 0.0178902
throughput change = 0.00210265
Class 0:
Packet latency average = 16.1018
	minimum = 5
	maximum = 55
Network latency average = 16.1018
	minimum = 5
	maximum = 55
Slowest packet = 851839
Flit latency average = 16.1281
	minimum = 5
	maximum = 55
Slowest flit = 851839
Fragmentation average = 0
	minimum = 0
	maximum = 0
Injected packet rate average = 0.67532
	minimum = 0.6465 (at node 92)
	maximum = 0.705 (at node 132)
Accepted packet rate average = 0.675617
	minimum = 0.614 (at node 186)
	maximum = 0.725 (at node 112)
Injected flit rate average = 0.67532
	minimum = 0.6465 (at node 92)
	maximum = 0.705 (at node 132)
Accepted flit rate average= 0.675617
	minimum = 0.614 (at node 186)
	maximum = 0.725 (at node 112)
Injected packet length average = 1
Accepted packet length average = 1
Total in-flight flits = 2674 (2674 measured)
latency change    = 0.0143412
throughput change = 0.000907735
Class 0:
Packet latency average = 16.0685
	minimum = 5
	maximum = 57
Network latency average = 16.0685
	minimum = 5
	maximum = 57
Slowest packet = 974185
Flit latency average = 16.0863
	minimum = 5
	maximum = 57
Slowest flit = 974185
Fragmentation average = 0
	minimum = 0
	maximum = 0
Injected packet rate average = 0.675172
	minimum = 0.65 (at node 243)
	maximum = 0.698333 (at node 142)
Accepted packet rate average = 0.675276
	minimum = 0.634333 (at node 53)
	maximum = 0.718333 (at node 79)
Injected flit rate average = 0.675172
	minimum = 0.65 (at node 243)
	maximum = 0.698333 (at node 142)
Accepted flit rate average= 0.675276
	minimum = 0.634333 (at node 53)
	maximum = 0.718333 (at node 79)
Injected packet length average = 1
Accepted packet length average = 1
Total in-flight flits = 2746 (2746 measured)
latency change    = 0.00207123
throughput change = 0.000505195
Draining all recorded packets ...
Draining remaining packets ...
Time taken is 6081 cycles
====== Overall Traffic Statistics ======
====== Traffic class 0 ======
Packet latency average = 16.0823 (1 samples)
	minimum = 5 (1 samples)
	maximum = 57 (1 samples)
Network latency average = 16.0823 (1 samples)
	minimum = 5 (1 samples)
	maximum = 57 (1 samples)
Flit latency average = 16.0939 (1 samples)
	minimum = 5 (1 samples)
	maximum = 57 (1 samples)
Fragmentation average = 0 (1 samples)
	minimum = 0 (1 samples)
	maximum = 0 (1 samples)
Injected packet rate average = 0.675172 (1 samples)
	minimum = 0.65 (1 samples)
	maximum = 0.698333 (1 samples)
Accepted packet rate average = 0.675276 (1 samples)
	minimum = 0.634333 (1 samples)
	maximum = 0.718333 (1 samples)
Injected flit rate average = 0.675172 (1 samples)
	minimum = 0.65 (1 samples)
	maximum = 0.698333 (1 samples)
Accepted flit rate average = 0.675276 (1 samples)
	minimum = 0.634333 (1 samples)
	maximum = 0.718333 (1 samples)
Injected packet size average = 1 (1 samples)
Accepted packet size average = 1 (1 samples)
Hops average = 1.93747 (1 samples)
Total run time 6.31575
