BEGIN Configuration File: ../../../booksim2/src/examples/flatflyconfig
// $Id$

// Copyright (c) 2007-2015, Trustees of The Leland Stanford Junior University
// All rights reserved.
//
// Redistribution and use in source and binary forms, with or without
// modification, are permitted provided that the following conditions are met:
//
// Redistributions of source code must retain the above copyright notice, this
// list of conditions and the following disclaimer.
// Redistributions in binary form must reproduce the above copyright notice,
// this list of conditions and the following disclaimer in the documentation
// and/or other materials provided with the distribution.
//
// THIS SOFTWARE IS PROVIDED BY THE COPYRIGHT HOLDERS AND CONTRIBUTORS "AS IS"
// AND ANY EXPRESS OR IMPLIED WARRANTIES, INCLUDING, BUT NOT LIMITED TO, THE
// IMPLIED WARRANTIES OF MERCHANTABILITY AND FITNESS FOR A PARTICULAR PURPOSE
// ARE DISCLAIMED. IN NO EVENT SHALL THE COPYRIGHT OWNER OR CONTRIBUTORS BE
// LIABLE FOR ANY DIRECT, INDIRECT, INCIDENTAL, SPECIAL, EXEMPLARY, OR
// CONSEQUENTIAL DAMAGES (INCLUDING, BUT NOT LIMITED TO, PROCUREMENT OF
// SUBSTITUTE GOODS OR SERVICES; LOSS OF USE, DATA, OR PROFITS; OR BUSINESS
// INTERRUPTION) HOWEVER CAUSED AND ON ANY THEORY OF LIABILITY, WHETHER IN
// CONTRACT, STRICT LIABILITY, OR TORT (INCLUDING NEGLIGENCE OR OTHERWISE)
// ARISING IN ANY WAY OUT OF THE USE OF THIS SOFTWARE, EVEN IF ADVISED OF THE
// POSSIBILITY OF SUCH DAMAGE.

//A flattened butterfly configurate file with many tweaks from the
//default settings. 


// Flow control
// Total number of VCs must match the above assignments
num_vcs     = 2;
vc_buf_size = 16;

wait_for_tail_credit = 0;

//
// Router architectureq
//
vc_allocator = islip; 
sw_allocator = islip;
alloc_iters  = 3;

credit_delay   = 0;
routing_delay  = 1;
vc_alloc_delay = 1;
sw_alloc_delay = 1;
st_final_delay = 1;

input_speedup     = 1;
output_speedup    = 1;
internal_speedup  = 1.6;

//
// Traffic
//

warmup_periods = 3;

sample_period  = 1000;  

sim_count          = 1;

traffic       = uniform;


// Flatfly 
//
// #node = k^(n+1)
//
// x, y, specifies the arrangement of routers in x and y dim
// xr, yr specifiies the arayment of clients in a router
//
topology = flatfly;
subnets = 1;

c  = 16;
k  = 16;
n  = 1;

x  = 16;
y  = 1;
xr = 16;
yr = 1;

use_noc_latency = 0;

//
// Routing
//

routing_function = ran_min;

//1: batch mode, 0: injection mode
use_read_write = 0;

//for injection mode
packet_size = 1;
injection_rate = 0.1;

//for batch mode
read_request_size=1;
write_request_size=1;
read_reply_size=1;
write_reply_size=1;

read_request_begin_vc  = 0;
read_request_end_vc    = 3;
write_reply_begin_vc   = 4;
write_reply_end_vc     = 7;
read_reply_begin_vc    = 4;
read_reply_end_vc      = 7;
write_request_begin_vc = 0;
write_request_end_vc   = 3;

//latency: drains all packet, throughput:no drain?
sim_type = latency;

END Configuration File: ../../../booksim2/src/examples/flatflyconfig
OVERRIDE Parameter: sim_type=latency
OVERRIDE Parameter: traffic=uniform
OVERRIDE Parameter: injection_rate={0.3}
 Flat Bufferfly 
 k = 16 n = 1 c = 16
 each switch - total radix =  31
 # of switches = 16
 # of channels = 240
 # of nodes ( size of network ) = 256
Class 0:
Packet latency average = 10.0117
	minimum = 5
	maximum = 19
Network latency average = 10.0117
	minimum = 5
	maximum = 19
Slowest packet = 55494
Flit latency average = 10.0117
	minimum = 5
	maximum = 19
Slowest flit = 55494
Fragmentation average = 0
	minimum = 0
	maximum = 0
Injected packet rate average = 0.299043
	minimum = 0.262 (at node 203)
	maximum = 0.337 (at node 223)
Accepted packet rate average = 0.295773
	minimum = 0.253 (at node 108)
	maximum = 0.347 (at node 72)
Injected flit rate average = 0.299043
	minimum = 0.262 (at node 203)
	maximum = 0.337 (at node 223)
Accepted flit rate average= 0.295773
	minimum = 0.253 (at node 108)
	maximum = 0.347 (at node 72)
Injected packet length average = 1
Accepted packet length average = 1
Total in-flight flits = 837 (0 measured)
latency change    = 1
throughput change = 1
Class 0:
Packet latency average = 10.0073
	minimum = 5
	maximum = 19
Network latency average = 10.0073
	minimum = 5
	maximum = 19
Slowest packet = 55494
Flit latency average = 10.0073
	minimum = 5
	maximum = 19
Slowest flit = 55494
Fragmentation average = 0
	minimum = 0
	maximum = 0
Injected packet rate average = 0.299334
	minimum = 0.274 (at node 203)
	maximum = 0.326 (at node 189)
Accepted packet rate average = 0.297801
	minimum = 0.265 (at node 110)
	maximum = 0.3345 (at node 248)
Injected flit rate average = 0.299334
	minimum = 0.274 (at node 203)
	maximum = 0.326 (at node 189)
Accepted flit rate average= 0.297801
	minimum = 0.265 (at node 110)
	maximum = 0.3345 (at node 248)
Injected packet length average = 1
Accepted packet length average = 1
Total in-flight flits = 785 (0 measured)
latency change    = 0.000437227
throughput change = 0.00680772
Class 0:
Packet latency average = 10.0262
	minimum = 5
	maximum = 18
Network latency average = 10.0262
	minimum = 5
	maximum = 18
Slowest packet = 162667
Flit latency average = 10.0262
	minimum = 5
	maximum = 18
Slowest flit = 162667
Fragmentation average = 0
	minimum = 0
	maximum = 0
Injected packet rate average = 0.30009
	minimum = 0.263 (at node 174)
	maximum = 0.34 (at node 45)
Accepted packet rate average = 0.299883
	minimum = 0.259 (at node 155)
	maximum = 0.345 (at node 156)
Injected flit rate average = 0.30009
	minimum = 0.263 (at node 174)
	maximum = 0.34 (at node 45)
Accepted flit rate average= 0.299883
	minimum = 0.259 (at node 155)
	maximum = 0.345 (at node 156)
Injected packet length average = 1
Accepted packet length average = 1
Total in-flight flits = 838 (0 measured)
latency change    = 0.00187811
throughput change = 0.00694282
Warmed up ...Time used is 3000 cycles
Class 0:
Packet latency average = 10.0088
	minimum = 5
	maximum = 18
Network latency average = 10.0088
	minimum = 5
	maximum = 18
Slowest packet = 243684
Flit latency average = 10.0126
	minimum = 5
	maximum = 18
Slowest flit = 243684
Fragmentation average = 0
	minimum = 0
	maximum = 0
Injected packet rate average = 0.29932
	minimum = 0.258 (at node 154)
	maximum = 0.344 (at node 61)
Accepted packet rate average = 0.299695
	minimum = 0.26 (at node 128)
	maximum = 0.335 (at node 27)
Injected flit rate average = 0.29932
	minimum = 0.258 (at node 154)
	maximum = 0.344 (at node 61)
Accepted flit rate average= 0.299695
	minimum = 0.26 (at node 128)
	maximum = 0.335 (at node 27)
Injected packet length average = 1
Accepted packet length average = 1
Total in-flight flits = 742 (742 measured)
latency change    = 0.00173247
throughput change = 0.000625635
Class 0:
Packet latency average = 10.0134
	minimum = 5
	maximum = 18
Network latency average = 10.0134
	minimum = 5
	maximum = 18
Slowest packet = 243684
Flit latency average = 10.0152
	minimum = 5
	maximum = 18
Slowest flit = 243684
Fragmentation average = 0
	minimum = 0
	maximum = 0
Injected packet rate average = 0.299338
	minimum = 0.273 (at node 15)
	maximum = 0.329 (at node 204)
Accepted packet rate average = 0.299359
	minimum = 0.2675 (at node 21)
	maximum = 0.336 (at node 244)
Injected flit rate average = 0.299338
	minimum = 0.273 (at node 15)
	maximum = 0.329 (at node 204)
Accepted flit rate average= 0.299359
	minimum = 0.2675 (at node 21)
	maximum = 0.336 (at node 244)
Injected packet length average = 1
Accepted packet length average = 1
Total in-flight flits = 827 (827 measured)
latency change    = 0.000453446
throughput change = 0.00112219
Class 0:
Packet latency average = 10.0146
	minimum = 5
	maximum = 20
Network latency average = 10.0146
	minimum = 5
	maximum = 20
Slowest packet = 451133
Flit latency average = 10.0158
	minimum = 5
	maximum = 20
Slowest flit = 451133
Fragmentation average = 0
	minimum = 0
	maximum = 0
Injected packet rate average = 0.299493
	minimum = 0.274667 (at node 7)
	maximum = 0.325667 (at node 204)
Accepted packet rate average = 0.299527
	minimum = 0.276667 (at node 193)
	maximum = 0.333 (at node 244)
Injected flit rate average = 0.299493
	minimum = 0.274667 (at node 7)
	maximum = 0.325667 (at node 204)
Accepted flit rate average= 0.299527
	minimum = 0.276667 (at node 193)
	maximum = 0.333 (at node 244)
Injected packet length average = 1
Accepted packet length average = 1
Total in-flight flits = 812 (812 measured)
latency change    = 0.00012359
throughput change = 0.000560779
Draining all recorded packets ...
Draining remaining packets ...
Time taken is 6029 cycles
====== Overall Traffic Statistics ======
====== Traffic class 0 ======
Packet latency average = 10.0154 (1 samples)
	minimum = 5 (1 samples)
	maximum = 20 (1 samples)
Network latency average = 10.0154 (1 samples)
	minimum = 5 (1 samples)
	maximum = 20 (1 samples)
Flit latency average = 10.0166 (1 samples)
	minimum = 5 (1 samples)
	maximum = 20 (1 samples)
Fragmentation average = 0 (1 samples)
	minimum = 0 (1 samples)
	maximum = 0 (1 samples)
Injected packet rate average = 0.299493 (1 samples)
	minimum = 0.274667 (1 samples)
	maximum = 0.325667 (1 samples)
Accepted packet rate average = 0.299527 (1 samples)
	minimum = 0.276667 (1 samples)
	maximum = 0.333 (1 samples)
Injected flit rate average = 0.299493 (1 samples)
	minimum = 0.274667 (1 samples)
	maximum = 0.325667 (1 samples)
Accepted flit rate average = 0.299527 (1 samples)
	minimum = 0.276667 (1 samples)
	maximum = 0.333 (1 samples)
Injected packet size average = 1 (1 samples)
Accepted packet size average = 1 (1 samples)
Hops average = 1.93646 (1 samples)
Total run time 3.00139
