BEGIN Configuration File: ../../../booksim2/src/examples/flatflyconfig
// $Id$

// Copyright (c) 2007-2015, Trustees of The Leland Stanford Junior University
// All rights reserved.
//
// Redistribution and use in source and binary forms, with or without
// modification, are permitted provided that the following conditions are met:
//
// Redistributions of source code must retain the above copyright notice, this
// list of conditions and the following disclaimer.
// Redistributions in binary form must reproduce the above copyright notice,
// this list of conditions and the following disclaimer in the documentation
// and/or other materials provided with the distribution.
//
// THIS SOFTWARE IS PROVIDED BY THE COPYRIGHT HOLDERS AND CONTRIBUTORS "AS IS"
// AND ANY EXPRESS OR IMPLIED WARRANTIES, INCLUDING, BUT NOT LIMITED TO, THE
// IMPLIED WARRANTIES OF MERCHANTABILITY AND FITNESS FOR A PARTICULAR PURPOSE
// ARE DISCLAIMED. IN NO EVENT SHALL THE COPYRIGHT OWNER OR CONTRIBUTORS BE
// LIABLE FOR ANY DIRECT, INDIRECT, INCIDENTAL, SPECIAL, EXEMPLARY, OR
// CONSEQUENTIAL DAMAGES (INCLUDING, BUT NOT LIMITED TO, PROCUREMENT OF
// SUBSTITUTE GOODS OR SERVICES; LOSS OF USE, DATA, OR PROFITS; OR BUSINESS
// INTERRUPTION) HOWEVER CAUSED AND ON ANY THEORY OF LIABILITY, WHETHER IN
// CONTRACT, STRICT LIABILITY, OR TORT (INCLUDING NEGLIGENCE OR OTHERWISE)
// ARISING IN ANY WAY OUT OF THE USE OF THIS SOFTWARE, EVEN IF ADVISED OF THE
// POSSIBILITY OF SUCH DAMAGE.

//A flattened butterfly configurate file with many tweaks from the
//default settings. 


// Flow control
// Total number of VCs must match the above assignments
num_vcs     = 2;
vc_buf_size = 16;

wait_for_tail_credit = 0;

//
// Router architectureq
//
vc_allocator = islip; 
sw_allocator = islip;
alloc_iters  = 3;

credit_delay   = 0;
routing_delay  = 1;
vc_alloc_delay = 1;
sw_alloc_delay = 1;
st_final_delay = 1;

input_speedup     = 1;
output_speedup    = 1;
internal_speedup  = 1.6;

//
// Traffic
//

warmup_periods = 3;

sample_period  = 1000;  

sim_count          = 1;

traffic       = uniform;


// Flatfly 
//
// #node = k^(n+1)
//
// x, y, specifies the arrangement of routers in x and y dim
// xr, yr specifiies the arayment of clients in a router
//
topology = flatfly;
subnets = 1;

c  = 16;
k  = 16;
n  = 1;

x  = 16;
y  = 1;
xr = 16;
yr = 1;

use_noc_latency = 0;

//
// Routing
//

routing_function = ran_min;

//1: batch mode, 0: injection mode
use_read_write = 0;

//for injection mode
packet_size = 1;
injection_rate = 0.1;

//for batch mode
read_request_size=1;
write_request_size=1;
read_reply_size=1;
write_reply_size=1;

read_request_begin_vc  = 0;
read_request_end_vc    = 3;
write_reply_begin_vc   = 4;
write_reply_end_vc     = 7;
read_reply_begin_vc    = 4;
read_reply_end_vc      = 7;
write_request_begin_vc = 0;
write_request_end_vc   = 3;

//latency: drains all packet, throughput:no drain?
sim_type = latency;

END Configuration File: ../../../booksim2/src/examples/flatflyconfig
OVERRIDE Parameter: sim_type=latency
OVERRIDE Parameter: traffic=uniform
OVERRIDE Parameter: injection_rate={0.375}
 Flat Bufferfly 
 k = 16 n = 1 c = 16
 each switch - total radix =  31
 # of switches = 16
 # of channels = 240
 # of nodes ( size of network ) = 256
Class 0:
Packet latency average = 10.2857
	minimum = 5
	maximum = 20
Network latency average = 10.2857
	minimum = 5
	maximum = 20
Slowest packet = 19498
Flit latency average = 10.2857
	minimum = 5
	maximum = 20
Slowest flit = 19498
Fragmentation average = 0
	minimum = 0
	maximum = 0
Injected packet rate average = 0.37409
	minimum = 0.335 (at node 203)
	maximum = 0.412 (at node 26)
Accepted packet rate average = 0.369992
	minimum = 0.313 (at node 100)
	maximum = 0.42 (at node 130)
Injected flit rate average = 0.37409
	minimum = 0.335 (at node 203)
	maximum = 0.412 (at node 26)
Accepted flit rate average= 0.369992
	minimum = 0.313 (at node 100)
	maximum = 0.42 (at node 130)
Injected packet length average = 1
Accepted packet length average = 1
Total in-flight flits = 1049 (0 measured)
latency change    = 1
throughput change = 1
Class 0:
Packet latency average = 10.2868
	minimum = 5
	maximum = 20
Network latency average = 10.2868
	minimum = 5
	maximum = 20
Slowest packet = 19498
Flit latency average = 10.2868
	minimum = 5
	maximum = 20
Slowest flit = 19498
Fragmentation average = 0
	minimum = 0
	maximum = 0
Injected packet rate average = 0.374561
	minimum = 0.352 (at node 50)
	maximum = 0.4005 (at node 189)
Accepted packet rate average = 0.372547
	minimum = 0.338 (at node 110)
	maximum = 0.41 (at node 65)
Injected flit rate average = 0.374561
	minimum = 0.352 (at node 50)
	maximum = 0.4005 (at node 189)
Accepted flit rate average= 0.372547
	minimum = 0.338 (at node 110)
	maximum = 0.41 (at node 65)
Injected packet length average = 1
Accepted packet length average = 1
Total in-flight flits = 1031 (0 measured)
latency change    = 0.000106147
throughput change = 0.00685736
Class 0:
Packet latency average = 10.2904
	minimum = 5
	maximum = 19
Network latency average = 10.2904
	minimum = 5
	maximum = 19
Slowest packet = 194518
Flit latency average = 10.2904
	minimum = 5
	maximum = 19
Slowest flit = 194518
Fragmentation average = 0
	minimum = 0
	maximum = 0
Injected packet rate average = 0.37452
	minimum = 0.334 (at node 252)
	maximum = 0.41 (at node 45)
Accepted packet rate average = 0.374457
	minimum = 0.317 (at node 114)
	maximum = 0.428 (at node 201)
Injected flit rate average = 0.37452
	minimum = 0.334 (at node 252)
	maximum = 0.41 (at node 45)
Accepted flit rate average= 0.374457
	minimum = 0.317 (at node 114)
	maximum = 0.428 (at node 201)
Injected packet length average = 1
Accepted packet length average = 1
Total in-flight flits = 1047 (0 measured)
latency change    = 0.000347457
throughput change = 0.00510114
Warmed up ...Time used is 3000 cycles
Class 0:
Packet latency average = 10.2858
	minimum = 5
	maximum = 21
Network latency average = 10.2858
	minimum = 5
	maximum = 21
Slowest packet = 373120
Flit latency average = 10.2887
	minimum = 5
	maximum = 21
Slowest flit = 373120
Fragmentation average = 0
	minimum = 0
	maximum = 0
Injected packet rate average = 0.374418
	minimum = 0.334 (at node 150)
	maximum = 0.415 (at node 61)
Accepted packet rate average = 0.374785
	minimum = 0.326 (at node 21)
	maximum = 0.433 (at node 244)
Injected flit rate average = 0.374418
	minimum = 0.334 (at node 150)
	maximum = 0.415 (at node 61)
Accepted flit rate average= 0.374785
	minimum = 0.326 (at node 21)
	maximum = 0.433 (at node 244)
Injected packet length average = 1
Accepted packet length average = 1
Total in-flight flits = 953 (953 measured)
latency change    = 0.000446014
throughput change = 0.000875502
Class 0:
Packet latency average = 10.2919
	minimum = 5
	maximum = 21
Network latency average = 10.2919
	minimum = 5
	maximum = 21
Slowest packet = 373120
Flit latency average = 10.2934
	minimum = 5
	maximum = 21
Slowest flit = 373120
Fragmentation average = 0
	minimum = 0
	maximum = 0
Injected packet rate average = 0.374379
	minimum = 0.3385 (at node 150)
	maximum = 0.405 (at node 6)
Accepted packet rate average = 0.374439
	minimum = 0.3425 (at node 62)
	maximum = 0.4155 (at node 244)
Injected flit rate average = 0.374379
	minimum = 0.3385 (at node 150)
	maximum = 0.405 (at node 6)
Accepted flit rate average= 0.374439
	minimum = 0.3425 (at node 62)
	maximum = 0.4155 (at node 244)
Injected packet length average = 1
Accepted packet length average = 1
Total in-flight flits = 1016 (1016 measured)
latency change    = 0.000595903
throughput change = 0.000923255
Class 0:
Packet latency average = 10.2958
	minimum = 5
	maximum = 21
Network latency average = 10.2958
	minimum = 5
	maximum = 21
Slowest packet = 373120
Flit latency average = 10.2967
	minimum = 5
	maximum = 21
Slowest flit = 373120
Fragmentation average = 0
	minimum = 0
	maximum = 0
Injected packet rate average = 0.374382
	minimum = 0.346 (at node 150)
	maximum = 0.401 (at node 204)
Accepted packet rate average = 0.374453
	minimum = 0.345 (at node 246)
	maximum = 0.408 (at node 174)
Injected flit rate average = 0.374382
	minimum = 0.346 (at node 150)
	maximum = 0.401 (at node 204)
Accepted flit rate average= 0.374453
	minimum = 0.345 (at node 246)
	maximum = 0.408 (at node 174)
Injected packet length average = 1
Accepted packet length average = 1
Total in-flight flits = 992 (992 measured)
latency change    = 0.000371891
throughput change = 3.65116e-05
Draining all recorded packets ...
Draining remaining packets ...
Time taken is 6029 cycles
====== Overall Traffic Statistics ======
====== Traffic class 0 ======
Packet latency average = 10.296 (1 samples)
	minimum = 5 (1 samples)
	maximum = 21 (1 samples)
Network latency average = 10.296 (1 samples)
	minimum = 5 (1 samples)
	maximum = 21 (1 samples)
Flit latency average = 10.2967 (1 samples)
	minimum = 5 (1 samples)
	maximum = 21 (1 samples)
Fragmentation average = 0 (1 samples)
	minimum = 0 (1 samples)
	maximum = 0 (1 samples)
Injected packet rate average = 0.374382 (1 samples)
	minimum = 0.346 (1 samples)
	maximum = 0.401 (1 samples)
Accepted packet rate average = 0.374453 (1 samples)
	minimum = 0.345 (1 samples)
	maximum = 0.408 (1 samples)
Injected flit rate average = 0.374382 (1 samples)
	minimum = 0.346 (1 samples)
	maximum = 0.401 (1 samples)
Accepted flit rate average = 0.374453 (1 samples)
	minimum = 0.345 (1 samples)
	maximum = 0.408 (1 samples)
Injected packet size average = 1 (1 samples)
Accepted packet size average = 1 (1 samples)
Hops average = 1.93719 (1 samples)
Total run time 3.7914
