BEGIN Configuration File: ../../../booksim2/src/examples/flatflyconfig
// $Id$

// Copyright (c) 2007-2015, Trustees of The Leland Stanford Junior University
// All rights reserved.
//
// Redistribution and use in source and binary forms, with or without
// modification, are permitted provided that the following conditions are met:
//
// Redistributions of source code must retain the above copyright notice, this
// list of conditions and the following disclaimer.
// Redistributions in binary form must reproduce the above copyright notice,
// this list of conditions and the following disclaimer in the documentation
// and/or other materials provided with the distribution.
//
// THIS SOFTWARE IS PROVIDED BY THE COPYRIGHT HOLDERS AND CONTRIBUTORS "AS IS"
// AND ANY EXPRESS OR IMPLIED WARRANTIES, INCLUDING, BUT NOT LIMITED TO, THE
// IMPLIED WARRANTIES OF MERCHANTABILITY AND FITNESS FOR A PARTICULAR PURPOSE
// ARE DISCLAIMED. IN NO EVENT SHALL THE COPYRIGHT OWNER OR CONTRIBUTORS BE
// LIABLE FOR ANY DIRECT, INDIRECT, INCIDENTAL, SPECIAL, EXEMPLARY, OR
// CONSEQUENTIAL DAMAGES (INCLUDING, BUT NOT LIMITED TO, PROCUREMENT OF
// SUBSTITUTE GOODS OR SERVICES; LOSS OF USE, DATA, OR PROFITS; OR BUSINESS
// INTERRUPTION) HOWEVER CAUSED AND ON ANY THEORY OF LIABILITY, WHETHER IN
// CONTRACT, STRICT LIABILITY, OR TORT (INCLUDING NEGLIGENCE OR OTHERWISE)
// ARISING IN ANY WAY OUT OF THE USE OF THIS SOFTWARE, EVEN IF ADVISED OF THE
// POSSIBILITY OF SUCH DAMAGE.

//A flattened butterfly configurate file with many tweaks from the
//default settings. 


// Flow control
// Total number of VCs must match the above assignments
num_vcs     = 2;
vc_buf_size = 16;

wait_for_tail_credit = 0;

//
// Router architectureq
//
vc_allocator = islip; 
sw_allocator = islip;
alloc_iters  = 3;

credit_delay   = 0;
routing_delay  = 1;
vc_alloc_delay = 1;
sw_alloc_delay = 1;
st_final_delay = 1;

input_speedup     = 1;
output_speedup    = 1;
internal_speedup  = 1.6;

//
// Traffic
//

warmup_periods = 3;

sample_period  = 1000;  

sim_count          = 1;

traffic       = uniform;


// Flatfly 
//
// #node = k^(n+1)
//
// x, y, specifies the arrangement of routers in x and y dim
// xr, yr specifiies the arayment of clients in a router
//
topology = flatfly;
subnets = 1;

c  = 16;
k  = 16;
n  = 1;

x  = 16;
y  = 1;
xr = 16;
yr = 1;

use_noc_latency = 0;

//
// Routing
//

routing_function = ran_min;

//1: batch mode, 0: injection mode
use_read_write = 0;

//for injection mode
packet_size = 1;
injection_rate = 0.1;

//for batch mode
read_request_size=1;
write_request_size=1;
read_reply_size=1;
write_reply_size=1;

read_request_begin_vc  = 0;
read_request_end_vc    = 3;
write_reply_begin_vc   = 4;
write_reply_end_vc     = 7;
read_reply_begin_vc    = 4;
read_reply_end_vc      = 7;
write_request_begin_vc = 0;
write_request_end_vc   = 3;

//latency: drains all packet, throughput:no drain?
sim_type = latency;

END Configuration File: ../../../booksim2/src/examples/flatflyconfig
OVERRIDE Parameter: sim_type=latency
OVERRIDE Parameter: traffic=uniform
OVERRIDE Parameter: injection_rate={0.65}
 Flat Bufferfly 
 k = 16 n = 1 c = 16
 each switch - total radix =  31
 # of switches = 16
 # of channels = 240
 # of nodes ( size of network ) = 256
Class 0:
Packet latency average = 13.9817
	minimum = 5
	maximum = 48
Network latency average = 13.9817
	minimum = 5
	maximum = 48
Slowest packet = 111155
Flit latency average = 13.9817
	minimum = 5
	maximum = 48
Slowest flit = 111155
Fragmentation average = 0
	minimum = 0
	maximum = 0
Injected packet rate average = 0.649277
	minimum = 0.604 (at node 126)
	maximum = 0.688 (at node 26)
Accepted packet rate average = 0.639992
	minimum = 0.576 (at node 95)
	maximum = 0.711 (at node 186)
Injected flit rate average = 0.649277
	minimum = 0.604 (at node 126)
	maximum = 0.688 (at node 26)
Accepted flit rate average= 0.639992
	minimum = 0.576 (at node 95)
	maximum = 0.711 (at node 186)
Injected packet length average = 1
Accepted packet length average = 1
Total in-flight flits = 2377 (0 measured)
latency change    = 1
throughput change = 1
Class 0:
Packet latency average = 14.017
	minimum = 5
	maximum = 49
Network latency average = 14.017
	minimum = 5
	maximum = 49
Slowest packet = 259504
Flit latency average = 14.017
	minimum = 5
	maximum = 49
Slowest flit = 259504
Fragmentation average = 0
	minimum = 0
	maximum = 0
Injected packet rate average = 0.649203
	minimum = 0.6185 (at node 172)
	maximum = 0.679 (at node 26)
Accepted packet rate average = 0.644518
	minimum = 0.5935 (at node 21)
	maximum = 0.69 (at node 65)
Injected flit rate average = 0.649203
	minimum = 0.6185 (at node 172)
	maximum = 0.679 (at node 26)
Accepted flit rate average= 0.644518
	minimum = 0.5935 (at node 21)
	maximum = 0.69 (at node 65)
Injected packet length average = 1
Accepted packet length average = 1
Total in-flight flits = 2399 (0 measured)
latency change    = 0.00252328
throughput change = 0.00702136
Class 0:
Packet latency average = 14.3307
	minimum = 5
	maximum = 51
Network latency average = 14.3307
	minimum = 5
	maximum = 51
Slowest packet = 404769
Flit latency average = 14.3307
	minimum = 5
	maximum = 51
Slowest flit = 404769
Fragmentation average = 0
	minimum = 0
	maximum = 0
Injected packet rate average = 0.64966
	minimum = 0.608 (at node 252)
	maximum = 0.699 (at node 149)
Accepted packet rate average = 0.649492
	minimum = 0.577 (at node 20)
	maximum = 0.722 (at node 5)
Injected flit rate average = 0.64966
	minimum = 0.608 (at node 252)
	maximum = 0.699 (at node 149)
Accepted flit rate average= 0.649492
	minimum = 0.577 (at node 20)
	maximum = 0.722 (at node 5)
Injected packet length average = 1
Accepted packet length average = 1
Total in-flight flits = 2442 (0 measured)
latency change    = 0.0218859
throughput change = 0.00765923
Warmed up ...Time used is 3000 cycles
Class 0:
Packet latency average = 14.3074
	minimum = 5
	maximum = 49
Network latency average = 14.3074
	minimum = 5
	maximum = 49
Slowest packet = 589942
Flit latency average = 14.3436
	minimum = 5
	maximum = 49
Slowest flit = 589942
Fragmentation average = 0
	minimum = 0
	maximum = 0
Injected packet rate average = 0.650637
	minimum = 0.612 (at node 15)
	maximum = 0.69 (at node 4)
Accepted packet rate average = 0.65073
	minimum = 0.583 (at node 186)
	maximum = 0.726 (at node 255)
Injected flit rate average = 0.650637
	minimum = 0.612 (at node 15)
	maximum = 0.69 (at node 4)
Accepted flit rate average= 0.65073
	minimum = 0.583 (at node 186)
	maximum = 0.726 (at node 255)
Injected packet length average = 1
Accepted packet length average = 1
Total in-flight flits = 2418 (2418 measured)
latency change    = 0.00162544
throughput change = 0.00190291
Class 0:
Packet latency average = 14.2464
	minimum = 5
	maximum = 49
Network latency average = 14.2464
	minimum = 5
	maximum = 49
Slowest packet = 589942
Flit latency average = 14.265
	minimum = 5
	maximum = 49
Slowest flit = 589942
Fragmentation average = 0
	minimum = 0
	maximum = 0
Injected packet rate average = 0.649809
	minimum = 0.623 (at node 92)
	maximum = 0.6795 (at node 86)
Accepted packet rate average = 0.650105
	minimum = 0.588 (at node 186)
	maximum = 0.698 (at node 112)
Injected flit rate average = 0.649809
	minimum = 0.623 (at node 92)
	maximum = 0.6795 (at node 86)
Accepted flit rate average= 0.650105
	minimum = 0.588 (at node 186)
	maximum = 0.698 (at node 112)
Injected packet length average = 1
Accepted packet length average = 1
Total in-flight flits = 2290 (2290 measured)
latency change    = 0.00428011
throughput change = 0.000961382
Class 0:
Packet latency average = 14.1863
	minimum = 5
	maximum = 54
Network latency average = 14.1863
	minimum = 5
	maximum = 54
Slowest packet = 891890
Flit latency average = 14.199
	minimum = 5
	maximum = 54
Slowest flit = 891890
Fragmentation average = 0
	minimum = 0
	maximum = 0
Injected packet rate average = 0.649924
	minimum = 0.626667 (at node 139)
	maximum = 0.671667 (at node 142)
Accepted packet rate average = 0.650057
	minimum = 0.609667 (at node 102)
	maximum = 0.692333 (at node 225)
Injected flit rate average = 0.649924
	minimum = 0.626667 (at node 139)
	maximum = 0.671667 (at node 142)
Accepted flit rate average= 0.650057
	minimum = 0.609667 (at node 102)
	maximum = 0.692333 (at node 225)
Injected packet length average = 1
Accepted packet length average = 1
Total in-flight flits = 2340 (2340 measured)
latency change    = 0.00423925
throughput change = 7.41121e-05
Draining all recorded packets ...
Draining remaining packets ...
Time taken is 6076 cycles
====== Overall Traffic Statistics ======
====== Traffic class 0 ======
Packet latency average = 14.1926 (1 samples)
	minimum = 5 (1 samples)
	maximum = 54 (1 samples)
Network latency average = 14.1926 (1 samples)
	minimum = 5 (1 samples)
	maximum = 54 (1 samples)
Flit latency average = 14.1996 (1 samples)
	minimum = 5 (1 samples)
	maximum = 54 (1 samples)
Fragmentation average = 0 (1 samples)
	minimum = 0 (1 samples)
	maximum = 0 (1 samples)
Injected packet rate average = 0.649924 (1 samples)
	minimum = 0.626667 (1 samples)
	maximum = 0.671667 (1 samples)
Accepted packet rate average = 0.650057 (1 samples)
	minimum = 0.609667 (1 samples)
	maximum = 0.692333 (1 samples)
Injected flit rate average = 0.649924 (1 samples)
	minimum = 0.626667 (1 samples)
	maximum = 0.671667 (1 samples)
Accepted flit rate average = 0.650057 (1 samples)
	minimum = 0.609667 (1 samples)
	maximum = 0.692333 (1 samples)
Injected packet size average = 1 (1 samples)
Accepted packet size average = 1 (1 samples)
Hops average = 1.93771 (1 samples)
Total run time 6.11471
