BEGIN Configuration File: ../../../booksim2/src/examples/flatflyconfig
// $Id$

// Copyright (c) 2007-2015, Trustees of The Leland Stanford Junior University
// All rights reserved.
//
// Redistribution and use in source and binary forms, with or without
// modification, are permitted provided that the following conditions are met:
//
// Redistributions of source code must retain the above copyright notice, this
// list of conditions and the following disclaimer.
// Redistributions in binary form must reproduce the above copyright notice,
// this list of conditions and the following disclaimer in the documentation
// and/or other materials provided with the distribution.
//
// THIS SOFTWARE IS PROVIDED BY THE COPYRIGHT HOLDERS AND CONTRIBUTORS "AS IS"
// AND ANY EXPRESS OR IMPLIED WARRANTIES, INCLUDING, BUT NOT LIMITED TO, THE
// IMPLIED WARRANTIES OF MERCHANTABILITY AND FITNESS FOR A PARTICULAR PURPOSE
// ARE DISCLAIMED. IN NO EVENT SHALL THE COPYRIGHT OWNER OR CONTRIBUTORS BE
// LIABLE FOR ANY DIRECT, INDIRECT, INCIDENTAL, SPECIAL, EXEMPLARY, OR
// CONSEQUENTIAL DAMAGES (INCLUDING, BUT NOT LIMITED TO, PROCUREMENT OF
// SUBSTITUTE GOODS OR SERVICES; LOSS OF USE, DATA, OR PROFITS; OR BUSINESS
// INTERRUPTION) HOWEVER CAUSED AND ON ANY THEORY OF LIABILITY, WHETHER IN
// CONTRACT, STRICT LIABILITY, OR TORT (INCLUDING NEGLIGENCE OR OTHERWISE)
// ARISING IN ANY WAY OUT OF THE USE OF THIS SOFTWARE, EVEN IF ADVISED OF THE
// POSSIBILITY OF SUCH DAMAGE.

//A flattened butterfly configurate file with many tweaks from the
//default settings. 


// Flow control
// Total number of VCs must match the above assignments
num_vcs     = 2;
vc_buf_size = 16;

wait_for_tail_credit = 0;

//
// Router architectureq
//
vc_allocator = islip; 
sw_allocator = islip;
alloc_iters  = 3;

credit_delay   = 0;
routing_delay  = 1;
vc_alloc_delay = 1;
sw_alloc_delay = 1;
st_final_delay = 1;

input_speedup     = 1;
output_speedup    = 1;
internal_speedup  = 1.6;

//
// Traffic
//

warmup_periods = 3;

sample_period  = 1000;  

sim_count          = 1;

traffic       = uniform;


// Flatfly 
//
// #node = k^(n+1)
//
// x, y, specifies the arrangement of routers in x and y dim
// xr, yr specifiies the arayment of clients in a router
//
topology = flatfly;
subnets = 1;

c  = 16;
k  = 16;
n  = 1;

x  = 16;
y  = 1;
xr = 16;
yr = 1;

use_noc_latency = 0;

//
// Routing
//

routing_function = ran_min;

//1: batch mode, 0: injection mode
use_read_write = 0;

//for injection mode
packet_size = 1;
injection_rate = 0.1;

//for batch mode
read_request_size=1;
write_request_size=1;
read_reply_size=1;
write_reply_size=1;

read_request_begin_vc  = 0;
read_request_end_vc    = 3;
write_reply_begin_vc   = 4;
write_reply_end_vc     = 7;
read_reply_begin_vc    = 4;
read_reply_end_vc      = 7;
write_request_begin_vc = 0;
write_request_end_vc   = 3;

//latency: drains all packet, throughput:no drain?
sim_type = latency;

END Configuration File: ../../../booksim2/src/examples/flatflyconfig
OVERRIDE Parameter: sim_type=latency
OVERRIDE Parameter: traffic=uniform
OVERRIDE Parameter: injection_rate={0.2}
 Flat Bufferfly 
 k = 16 n = 1 c = 16
 each switch - total radix =  31
 # of switches = 16
 # of channels = 240
 # of nodes ( size of network ) = 256
Class 0:
Packet latency average = 9.74969
	minimum = 5
	maximum = 16
Network latency average = 9.74969
	minimum = 5
	maximum = 16
Slowest packet = 21347
Flit latency average = 9.74969
	minimum = 5
	maximum = 16
Slowest flit = 21347
Fragmentation average = 0
	minimum = 0
	maximum = 0
Injected packet rate average = 0.199156
	minimum = 0.17 (at node 104)
	maximum = 0.232 (at node 22)
Accepted packet rate average = 0.197023
	minimum = 0.165 (at node 95)
	maximum = 0.243 (at node 147)
Injected flit rate average = 0.199156
	minimum = 0.17 (at node 104)
	maximum = 0.232 (at node 22)
Accepted flit rate average= 0.197023
	minimum = 0.165 (at node 95)
	maximum = 0.243 (at node 147)
Injected packet length average = 1
Accepted packet length average = 1
Total in-flight flits = 546 (0 measured)
latency change    = 1
throughput change = 1
Class 0:
Packet latency average = 9.74885
	minimum = 5
	maximum = 18
Network latency average = 9.74885
	minimum = 5
	maximum = 18
Slowest packet = 94104
Flit latency average = 9.74885
	minimum = 5
	maximum = 18
Slowest flit = 94104
Fragmentation average = 0
	minimum = 0
	maximum = 0
Injected packet rate average = 0.199377
	minimum = 0.1795 (at node 97)
	maximum = 0.224 (at node 101)
Accepted packet rate average = 0.198373
	minimum = 0.17 (at node 108)
	maximum = 0.227 (at node 248)
Injected flit rate average = 0.199377
	minimum = 0.1795 (at node 97)
	maximum = 0.224 (at node 101)
Accepted flit rate average= 0.198373
	minimum = 0.17 (at node 108)
	maximum = 0.227 (at node 248)
Injected packet length average = 1
Accepted packet length average = 1
Total in-flight flits = 514 (0 measured)
latency change    = 8.68926e-05
throughput change = 0.00680339
Class 0:
Packet latency average = 9.74976
	minimum = 5
	maximum = 16
Network latency average = 9.74976
	minimum = 5
	maximum = 16
Slowest packet = 148562
Flit latency average = 9.74976
	minimum = 5
	maximum = 16
Slowest flit = 148562
Fragmentation average = 0
	minimum = 0
	maximum = 0
Injected packet rate average = 0.200437
	minimum = 0.167 (at node 110)
	maximum = 0.237 (at node 78)
Accepted packet rate average = 0.200367
	minimum = 0.158 (at node 252)
	maximum = 0.251 (at node 8)
Injected flit rate average = 0.200437
	minimum = 0.167 (at node 110)
	maximum = 0.237 (at node 78)
Accepted flit rate average= 0.200367
	minimum = 0.158 (at node 252)
	maximum = 0.251 (at node 8)
Injected packet length average = 1
Accepted packet length average = 1
Total in-flight flits = 532 (0 measured)
latency change    = 9.34092e-05
throughput change = 0.00995243
Warmed up ...Time used is 3000 cycles
Class 0:
Packet latency average = 9.74442
	minimum = 5
	maximum = 17
Network latency average = 9.74442
	minimum = 5
	maximum = 17
Slowest packet = 160163
Flit latency average = 9.74646
	minimum = 5
	maximum = 17
Slowest flit = 152869
Fragmentation average = 0
	minimum = 0
	maximum = 0
Injected packet rate average = 0.199625
	minimum = 0.161 (at node 154)
	maximum = 0.245 (at node 238)
Accepted packet rate average = 0.199793
	minimum = 0.162 (at node 217)
	maximum = 0.24 (at node 214)
Injected flit rate average = 0.199625
	minimum = 0.161 (at node 154)
	maximum = 0.245 (at node 238)
Accepted flit rate average= 0.199793
	minimum = 0.162 (at node 217)
	maximum = 0.24 (at node 214)
Injected packet length average = 1
Accepted packet length average = 1
Total in-flight flits = 489 (489 measured)
latency change    = 0.000547258
throughput change = 0.00287407
Class 0:
Packet latency average = 9.74985
	minimum = 5
	maximum = 17
Network latency average = 9.74985
	minimum = 5
	maximum = 17
Slowest packet = 160163
Flit latency average = 9.75084
	minimum = 5
	maximum = 17
Slowest flit = 152869
Fragmentation average = 0
	minimum = 0
	maximum = 0
Injected packet rate average = 0.1996
	minimum = 0.172 (at node 42)
	maximum = 0.229 (at node 165)
Accepted packet rate average = 0.199613
	minimum = 0.177 (at node 74)
	maximum = 0.226 (at node 156)
Injected flit rate average = 0.1996
	minimum = 0.172 (at node 42)
	maximum = 0.229 (at node 165)
Accepted flit rate average= 0.199613
	minimum = 0.177 (at node 74)
	maximum = 0.226 (at node 156)
Injected packet length average = 1
Accepted packet length average = 1
Total in-flight flits = 525 (525 measured)
latency change    = 0.000556312
throughput change = 0.000900178
Class 0:
Packet latency average = 9.75211
	minimum = 5
	maximum = 17
Network latency average = 9.75211
	minimum = 5
	maximum = 17
Slowest packet = 160163
Flit latency average = 9.75276
	minimum = 5
	maximum = 17
Slowest flit = 152869
Fragmentation average = 0
	minimum = 0
	maximum = 0
Injected packet rate average = 0.200014
	minimum = 0.175333 (at node 42)
	maximum = 0.221667 (at node 80)
Accepted packet rate average = 0.200017
	minimum = 0.181 (at node 195)
	maximum = 0.219 (at node 0)
Injected flit rate average = 0.200014
	minimum = 0.175333 (at node 42)
	maximum = 0.221667 (at node 80)
Accepted flit rate average= 0.200017
	minimum = 0.181 (at node 195)
	maximum = 0.219 (at node 0)
Injected packet length average = 1
Accepted packet length average = 1
Total in-flight flits = 530 (530 measured)
latency change    = 0.000232163
throughput change = 0.00201806
Draining all recorded packets ...
Draining remaining packets ...
Time taken is 6026 cycles
====== Overall Traffic Statistics ======
====== Traffic class 0 ======
Packet latency average = 9.75249 (1 samples)
	minimum = 5 (1 samples)
	maximum = 17 (1 samples)
Network latency average = 9.75249 (1 samples)
	minimum = 5 (1 samples)
	maximum = 17 (1 samples)
Flit latency average = 9.75302 (1 samples)
	minimum = 5 (1 samples)
	maximum = 17 (1 samples)
Fragmentation average = 0 (1 samples)
	minimum = 0 (1 samples)
	maximum = 0 (1 samples)
Injected packet rate average = 0.200014 (1 samples)
	minimum = 0.175333 (1 samples)
	maximum = 0.221667 (1 samples)
Accepted packet rate average = 0.200017 (1 samples)
	minimum = 0.181 (1 samples)
	maximum = 0.219 (1 samples)
Injected flit rate average = 0.200014 (1 samples)
	minimum = 0.175333 (1 samples)
	maximum = 0.221667 (1 samples)
Accepted flit rate average = 0.200017 (1 samples)
	minimum = 0.181 (1 samples)
	maximum = 0.219 (1 samples)
Injected packet size average = 1 (1 samples)
Accepted packet size average = 1 (1 samples)
Hops average = 1.93773 (1 samples)
Total run time 2.11675
