BEGIN Configuration File: ../../../booksim2/src/examples/flatflyconfig
// $Id$

// Copyright (c) 2007-2015, Trustees of The Leland Stanford Junior University
// All rights reserved.
//
// Redistribution and use in source and binary forms, with or without
// modification, are permitted provided that the following conditions are met:
//
// Redistributions of source code must retain the above copyright notice, this
// list of conditions and the following disclaimer.
// Redistributions in binary form must reproduce the above copyright notice,
// this list of conditions and the following disclaimer in the documentation
// and/or other materials provided with the distribution.
//
// THIS SOFTWARE IS PROVIDED BY THE COPYRIGHT HOLDERS AND CONTRIBUTORS "AS IS"
// AND ANY EXPRESS OR IMPLIED WARRANTIES, INCLUDING, BUT NOT LIMITED TO, THE
// IMPLIED WARRANTIES OF MERCHANTABILITY AND FITNESS FOR A PARTICULAR PURPOSE
// ARE DISCLAIMED. IN NO EVENT SHALL THE COPYRIGHT OWNER OR CONTRIBUTORS BE
// LIABLE FOR ANY DIRECT, INDIRECT, INCIDENTAL, SPECIAL, EXEMPLARY, OR
// CONSEQUENTIAL DAMAGES (INCLUDING, BUT NOT LIMITED TO, PROCUREMENT OF
// SUBSTITUTE GOODS OR SERVICES; LOSS OF USE, DATA, OR PROFITS; OR BUSINESS
// INTERRUPTION) HOWEVER CAUSED AND ON ANY THEORY OF LIABILITY, WHETHER IN
// CONTRACT, STRICT LIABILITY, OR TORT (INCLUDING NEGLIGENCE OR OTHERWISE)
// ARISING IN ANY WAY OUT OF THE USE OF THIS SOFTWARE, EVEN IF ADVISED OF THE
// POSSIBILITY OF SUCH DAMAGE.

//A flattened butterfly configurate file with many tweaks from the
//default settings. 


// Flow control
// Total number of VCs must match the above assignments
num_vcs     = 2;
vc_buf_size = 16;

wait_for_tail_credit = 0;

//
// Router architectureq
//
vc_allocator = islip; 
sw_allocator = islip;
alloc_iters  = 3;

credit_delay   = 0;
routing_delay  = 1;
vc_alloc_delay = 1;
sw_alloc_delay = 1;
st_final_delay = 1;

input_speedup     = 1;
output_speedup    = 1;
internal_speedup  = 1.6;

//
// Traffic
//

warmup_periods = 3;

sample_period  = 1000;  

sim_count          = 1;

traffic       = uniform;


// Flatfly 
//
// #node = k^(n+1)
//
// x, y, specifies the arrangement of routers in x and y dim
// xr, yr specifiies the arayment of clients in a router
//
topology = flatfly;
subnets = 1;

c  = 16;
k  = 16;
n  = 1;

x  = 16;
y  = 1;
xr = 16;
yr = 1;

use_noc_latency = 0;

//
// Routing
//

routing_function = ran_min;

//1: batch mode, 0: injection mode
use_read_write = 0;

//for injection mode
packet_size = 1;
injection_rate = 0.1;

//for batch mode
read_request_size=1;
write_request_size=1;
read_reply_size=1;
write_reply_size=1;

read_request_begin_vc  = 0;
read_request_end_vc    = 3;
write_reply_begin_vc   = 4;
write_reply_end_vc     = 7;
read_reply_begin_vc    = 4;
read_reply_end_vc      = 7;
write_request_begin_vc = 0;
write_request_end_vc   = 3;

//latency: drains all packet, throughput:no drain?
sim_type = latency;

END Configuration File: ../../../booksim2/src/examples/flatflyconfig
OVERRIDE Parameter: sim_type=latency
OVERRIDE Parameter: traffic=uniform
OVERRIDE Parameter: injection_rate={0.4}
 Flat Bufferfly 
 k = 16 n = 1 c = 16
 each switch - total radix =  31
 # of switches = 16
 # of channels = 240
 # of nodes ( size of network ) = 256
Class 0:
Packet latency average = 10.4134
	minimum = 5
	maximum = 23
Network latency average = 10.4134
	minimum = 5
	maximum = 23
Slowest packet = 66756
Flit latency average = 10.4134
	minimum = 5
	maximum = 23
Slowest flit = 66756
Fragmentation average = 0
	minimum = 0
	maximum = 0
Injected packet rate average = 0.399004
	minimum = 0.363 (at node 53)
	maximum = 0.439 (at node 74)
Accepted packet rate average = 0.394508
	minimum = 0.336 (at node 108)
	maximum = 0.448 (at node 248)
Injected flit rate average = 0.399004
	minimum = 0.363 (at node 53)
	maximum = 0.439 (at node 74)
Accepted flit rate average= 0.394508
	minimum = 0.336 (at node 108)
	maximum = 0.448 (at node 248)
Injected packet length average = 1
Accepted packet length average = 1
Total in-flight flits = 1151 (0 measured)
latency change    = 1
throughput change = 1
Class 0:
Packet latency average = 10.4037
	minimum = 5
	maximum = 23
Network latency average = 10.4037
	minimum = 5
	maximum = 23
Slowest packet = 66756
Flit latency average = 10.4037
	minimum = 5
	maximum = 23
Slowest flit = 66756
Fragmentation average = 0
	minimum = 0
	maximum = 0
Injected packet rate average = 0.399568
	minimum = 0.3755 (at node 50)
	maximum = 0.428 (at node 189)
Accepted packet rate average = 0.397406
	minimum = 0.361 (at node 110)
	maximum = 0.437 (at node 65)
Injected flit rate average = 0.399568
	minimum = 0.3755 (at node 50)
	maximum = 0.428 (at node 189)
Accepted flit rate average= 0.397406
	minimum = 0.361 (at node 110)
	maximum = 0.437 (at node 65)
Injected packet length average = 1
Accepted packet length average = 1
Total in-flight flits = 1107 (0 measured)
latency change    = 0.000932749
throughput change = 0.00729339
Class 0:
Packet latency average = 10.4141
	minimum = 5
	maximum = 24
Network latency average = 10.4141
	minimum = 5
	maximum = 24
Slowest packet = 222518
Flit latency average = 10.4141
	minimum = 5
	maximum = 24
Slowest flit = 222518
Fragmentation average = 0
	minimum = 0
	maximum = 0
Injected packet rate average = 0.399816
	minimum = 0.35 (at node 252)
	maximum = 0.436 (at node 46)
Accepted packet rate average = 0.399824
	minimum = 0.354 (at node 128)
	maximum = 0.449 (at node 198)
Injected flit rate average = 0.399816
	minimum = 0.35 (at node 252)
	maximum = 0.436 (at node 46)
Accepted flit rate average= 0.399824
	minimum = 0.354 (at node 128)
	maximum = 0.449 (at node 198)
Injected packet length average = 1
Accepted packet length average = 1
Total in-flight flits = 1105 (0 measured)
latency change    = 0.000996877
throughput change = 0.00604758
Warmed up ...Time used is 3000 cycles
Class 0:
Packet latency average = 10.409
	minimum = 5
	maximum = 20
Network latency average = 10.409
	minimum = 5
	maximum = 20
Slowest packet = 314815
Flit latency average = 10.412
	minimum = 5
	maximum = 20
Slowest flit = 314815
Fragmentation average = 0
	minimum = 0
	maximum = 0
Injected packet rate average = 0.399703
	minimum = 0.349 (at node 150)
	maximum = 0.442 (at node 61)
Accepted packet rate average = 0.399992
	minimum = 0.346 (at node 147)
	maximum = 0.465 (at node 244)
Injected flit rate average = 0.399703
	minimum = 0.349 (at node 150)
	maximum = 0.442 (at node 61)
Accepted flit rate average= 0.399992
	minimum = 0.346 (at node 147)
	maximum = 0.465 (at node 244)
Injected packet length average = 1
Accepted packet length average = 1
Total in-flight flits = 1031 (1031 measured)
latency change    = 0.000493419
throughput change = 0.00041993
Class 0:
Packet latency average = 10.4052
	minimum = 5
	maximum = 21
Network latency average = 10.4052
	minimum = 5
	maximum = 21
Slowest packet = 410664
Flit latency average = 10.4067
	minimum = 5
	maximum = 21
Slowest flit = 410664
Fragmentation average = 0
	minimum = 0
	maximum = 0
Injected packet rate average = 0.399504
	minimum = 0.361 (at node 150)
	maximum = 0.4315 (at node 241)
Accepted packet rate average = 0.399496
	minimum = 0.3555 (at node 62)
	maximum = 0.443 (at node 174)
Injected flit rate average = 0.399504
	minimum = 0.361 (at node 150)
	maximum = 0.4315 (at node 241)
Accepted flit rate average= 0.399496
	minimum = 0.3555 (at node 62)
	maximum = 0.443 (at node 174)
Injected packet length average = 1
Accepted packet length average = 1
Total in-flight flits = 1109 (1109 measured)
latency change    = 0.000359513
throughput change = 0.0012418
Class 0:
Packet latency average = 10.4068
	minimum = 5
	maximum = 21
Network latency average = 10.4068
	minimum = 5
	maximum = 21
Slowest packet = 410664
Flit latency average = 10.4078
	minimum = 5
	maximum = 21
Slowest flit = 410664
Fragmentation average = 0
	minimum = 0
	maximum = 0
Injected packet rate average = 0.399327
	minimum = 0.367 (at node 150)
	maximum = 0.429 (at node 241)
Accepted packet rate average = 0.399365
	minimum = 0.368 (at node 198)
	maximum = 0.443 (at node 121)
Injected flit rate average = 0.399327
	minimum = 0.367 (at node 150)
	maximum = 0.429 (at node 241)
Accepted flit rate average= 0.399365
	minimum = 0.368 (at node 198)
	maximum = 0.443 (at node 121)
Injected packet length average = 1
Accepted packet length average = 1
Total in-flight flits = 1076 (1076 measured)
latency change    = 0.000151097
throughput change = 0.000329299
Draining all recorded packets ...
Draining remaining packets ...
Time taken is 6031 cycles
====== Overall Traffic Statistics ======
====== Traffic class 0 ======
Packet latency average = 10.4072 (1 samples)
	minimum = 5 (1 samples)
	maximum = 21 (1 samples)
Network latency average = 10.4072 (1 samples)
	minimum = 5 (1 samples)
	maximum = 21 (1 samples)
Flit latency average = 10.4077 (1 samples)
	minimum = 5 (1 samples)
	maximum = 21 (1 samples)
Fragmentation average = 0 (1 samples)
	minimum = 0 (1 samples)
	maximum = 0 (1 samples)
Injected packet rate average = 0.399327 (1 samples)
	minimum = 0.367 (1 samples)
	maximum = 0.429 (1 samples)
Accepted packet rate average = 0.399365 (1 samples)
	minimum = 0.368 (1 samples)
	maximum = 0.443 (1 samples)
Injected flit rate average = 0.399327 (1 samples)
	minimum = 0.367 (1 samples)
	maximum = 0.429 (1 samples)
Accepted flit rate average = 0.399365 (1 samples)
	minimum = 0.368 (1 samples)
	maximum = 0.443 (1 samples)
Injected packet size average = 1 (1 samples)
Accepted packet size average = 1 (1 samples)
Hops average = 1.93715 (1 samples)
Total run time 3.89644
