BEGIN Configuration File: ../../../booksim2/src/examples/flatflyconfig
// $Id$

// Copyright (c) 2007-2015, Trustees of The Leland Stanford Junior University
// All rights reserved.
//
// Redistribution and use in source and binary forms, with or without
// modification, are permitted provided that the following conditions are met:
//
// Redistributions of source code must retain the above copyright notice, this
// list of conditions and the following disclaimer.
// Redistributions in binary form must reproduce the above copyright notice,
// this list of conditions and the following disclaimer in the documentation
// and/or other materials provided with the distribution.
//
// THIS SOFTWARE IS PROVIDED BY THE COPYRIGHT HOLDERS AND CONTRIBUTORS "AS IS"
// AND ANY EXPRESS OR IMPLIED WARRANTIES, INCLUDING, BUT NOT LIMITED TO, THE
// IMPLIED WARRANTIES OF MERCHANTABILITY AND FITNESS FOR A PARTICULAR PURPOSE
// ARE DISCLAIMED. IN NO EVENT SHALL THE COPYRIGHT OWNER OR CONTRIBUTORS BE
// LIABLE FOR ANY DIRECT, INDIRECT, INCIDENTAL, SPECIAL, EXEMPLARY, OR
// CONSEQUENTIAL DAMAGES (INCLUDING, BUT NOT LIMITED TO, PROCUREMENT OF
// SUBSTITUTE GOODS OR SERVICES; LOSS OF USE, DATA, OR PROFITS; OR BUSINESS
// INTERRUPTION) HOWEVER CAUSED AND ON ANY THEORY OF LIABILITY, WHETHER IN
// CONTRACT, STRICT LIABILITY, OR TORT (INCLUDING NEGLIGENCE OR OTHERWISE)
// ARISING IN ANY WAY OUT OF THE USE OF THIS SOFTWARE, EVEN IF ADVISED OF THE
// POSSIBILITY OF SUCH DAMAGE.

//A flattened butterfly configurate file with many tweaks from the
//default settings. 


// Flow control
// Total number of VCs must match the above assignments
num_vcs     = 2;
vc_buf_size = 16;

wait_for_tail_credit = 0;

//
// Router architectureq
//
vc_allocator = islip; 
sw_allocator = islip;
alloc_iters  = 3;

credit_delay   = 0;
routing_delay  = 1;
vc_alloc_delay = 1;
sw_alloc_delay = 1;
st_final_delay = 1;

input_speedup     = 1;
output_speedup    = 1;
internal_speedup  = 1.6;

//
// Traffic
//

warmup_periods = 3;

sample_period  = 1000;  

sim_count          = 1;

traffic       = uniform;


// Flatfly 
//
// #node = k^(n+1)
//
// x, y, specifies the arrangement of routers in x and y dim
// xr, yr specifiies the arayment of clients in a router
//
topology = flatfly;
subnets = 1;

c  = 16;
k  = 16;
n  = 1;

x  = 16;
y  = 1;
xr = 16;
yr = 1;

use_noc_latency = 0;

//
// Routing
//

routing_function = ran_min;

//1: batch mode, 0: injection mode
use_read_write = 0;

//for injection mode
packet_size = 1;
injection_rate = 0.1;

//for batch mode
read_request_size=1;
write_request_size=1;
read_reply_size=1;
write_reply_size=1;

read_request_begin_vc  = 0;
read_request_end_vc    = 3;
write_reply_begin_vc   = 4;
write_reply_end_vc     = 7;
read_reply_begin_vc    = 4;
read_reply_end_vc      = 7;
write_request_begin_vc = 0;
write_request_end_vc   = 3;

//latency: drains all packet, throughput:no drain?
sim_type = latency;

END Configuration File: ../../../booksim2/src/examples/flatflyconfig
OVERRIDE Parameter: sim_type=latency
OVERRIDE Parameter: traffic=uniform
OVERRIDE Parameter: injection_rate={0.35}
 Flat Bufferfly 
 k = 16 n = 1 c = 16
 each switch - total radix =  31
 # of switches = 16
 # of channels = 240
 # of nodes ( size of network ) = 256
Class 0:
Packet latency average = 10.1824
	minimum = 5
	maximum = 19
Network latency average = 10.1824
	minimum = 5
	maximum = 19
Slowest packet = 43105
Flit latency average = 10.1824
	minimum = 5
	maximum = 19
Slowest flit = 43105
Fragmentation average = 0
	minimum = 0
	maximum = 0
Injected packet rate average = 0.349168
	minimum = 0.312 (at node 53)
	maximum = 0.388 (at node 223)
Accepted packet rate average = 0.345281
	minimum = 0.293 (at node 100)
	maximum = 0.399 (at node 248)
Injected flit rate average = 0.349168
	minimum = 0.312 (at node 53)
	maximum = 0.388 (at node 223)
Accepted flit rate average= 0.345281
	minimum = 0.293 (at node 100)
	maximum = 0.399 (at node 248)
Injected packet length average = 1
Accepted packet length average = 1
Total in-flight flits = 995 (0 measured)
latency change    = 1
throughput change = 1
Class 0:
Packet latency average = 10.1856
	minimum = 5
	maximum = 20
Network latency average = 10.1856
	minimum = 5
	maximum = 20
Slowest packet = 168076
Flit latency average = 10.1856
	minimum = 5
	maximum = 20
Slowest flit = 168076
Fragmentation average = 0
	minimum = 0
	maximum = 0
Injected packet rate average = 0.349547
	minimum = 0.3255 (at node 175)
	maximum = 0.377 (at node 189)
Accepted packet rate average = 0.347721
	minimum = 0.3135 (at node 110)
	maximum = 0.383 (at node 186)
Injected flit rate average = 0.349547
	minimum = 0.3255 (at node 175)
	maximum = 0.377 (at node 189)
Accepted flit rate average= 0.347721
	minimum = 0.3135 (at node 110)
	maximum = 0.383 (at node 186)
Injected packet length average = 1
Accepted packet length average = 1
Total in-flight flits = 935 (0 measured)
latency change    = 0.000322731
throughput change = 0.00701555
Class 0:
Packet latency average = 10.1926
	minimum = 5
	maximum = 21
Network latency average = 10.1926
	minimum = 5
	maximum = 21
Slowest packet = 181517
Flit latency average = 10.1926
	minimum = 5
	maximum = 21
Slowest flit = 181517
Fragmentation average = 0
	minimum = 0
	maximum = 0
Injected packet rate average = 0.349641
	minimum = 0.309 (at node 218)
	maximum = 0.388 (at node 45)
Accepted packet rate average = 0.349484
	minimum = 0.301 (at node 70)
	maximum = 0.405 (at node 156)
Injected flit rate average = 0.349641
	minimum = 0.309 (at node 218)
	maximum = 0.388 (at node 45)
Accepted flit rate average= 0.349484
	minimum = 0.301 (at node 70)
	maximum = 0.405 (at node 156)
Injected packet length average = 1
Accepted packet length average = 1
Total in-flight flits = 975 (0 measured)
latency change    = 0.00068283
throughput change = 0.0050465
Warmed up ...Time used is 3000 cycles
Class 0:
Packet latency average = 10.1832
	minimum = 5
	maximum = 20
Network latency average = 10.1832
	minimum = 5
	maximum = 20
Slowest packet = 309392
Flit latency average = 10.1859
	minimum = 5
	maximum = 20
Slowest flit = 267884
Fragmentation average = 0
	minimum = 0
	maximum = 0
Injected packet rate average = 0.349102
	minimum = 0.312 (at node 231)
	maximum = 0.398 (at node 36)
Accepted packet rate average = 0.34943
	minimum = 0.286 (at node 21)
	maximum = 0.401 (at node 180)
Injected flit rate average = 0.349102
	minimum = 0.312 (at node 231)
	maximum = 0.398 (at node 36)
Accepted flit rate average= 0.34943
	minimum = 0.286 (at node 21)
	maximum = 0.401 (at node 180)
Injected packet length average = 1
Accepted packet length average = 1
Total in-flight flits = 891 (891 measured)
latency change    = 0.000927322
throughput change = 0.000156505
Class 0:
Packet latency average = 10.1866
	minimum = 5
	maximum = 21
Network latency average = 10.1866
	minimum = 5
	maximum = 21
Slowest packet = 432587
Flit latency average = 10.188
	minimum = 5
	maximum = 21
Slowest flit = 432587
Fragmentation average = 0
	minimum = 0
	maximum = 0
Injected packet rate average = 0.349139
	minimum = 0.323 (at node 242)
	maximum = 0.38 (at node 6)
Accepted packet rate average = 0.349195
	minimum = 0.321 (at node 146)
	maximum = 0.398 (at node 244)
Injected flit rate average = 0.349139
	minimum = 0.323 (at node 242)
	maximum = 0.38 (at node 6)
Accepted flit rate average= 0.349195
	minimum = 0.321 (at node 146)
	maximum = 0.398 (at node 244)
Injected packet length average = 1
Accepted packet length average = 1
Total in-flight flits = 946 (946 measured)
latency change    = 0.000338096
throughput change = 0.000671186
Class 0:
Packet latency average = 10.1904
	minimum = 5
	maximum = 21
Network latency average = 10.1904
	minimum = 5
	maximum = 21
Slowest packet = 432587
Flit latency average = 10.1913
	minimum = 5
	maximum = 21
Slowest flit = 432587
Fragmentation average = 0
	minimum = 0
	maximum = 0
Injected packet rate average = 0.349243
	minimum = 0.322 (at node 7)
	maximum = 0.376 (at node 6)
Accepted packet rate average = 0.349273
	minimum = 0.322 (at node 62)
	maximum = 0.381333 (at node 244)
Injected flit rate average = 0.349243
	minimum = 0.322 (at node 7)
	maximum = 0.376 (at node 6)
Accepted flit rate average= 0.349273
	minimum = 0.322 (at node 62)
	maximum = 0.381333 (at node 244)
Injected packet length average = 1
Accepted packet length average = 1
Total in-flight flits = 952 (952 measured)
latency change    = 0.000373163
throughput change = 0.000223679
Draining all recorded packets ...
Draining remaining packets ...
Time taken is 6029 cycles
====== Overall Traffic Statistics ======
====== Traffic class 0 ======
Packet latency average = 10.191 (1 samples)
	minimum = 5 (1 samples)
	maximum = 21 (1 samples)
Network latency average = 10.191 (1 samples)
	minimum = 5 (1 samples)
	maximum = 21 (1 samples)
Flit latency average = 10.1919 (1 samples)
	minimum = 5 (1 samples)
	maximum = 21 (1 samples)
Fragmentation average = 0 (1 samples)
	minimum = 0 (1 samples)
	maximum = 0 (1 samples)
Injected packet rate average = 0.349243 (1 samples)
	minimum = 0.322 (1 samples)
	maximum = 0.376 (1 samples)
Accepted packet rate average = 0.349273 (1 samples)
	minimum = 0.322 (1 samples)
	maximum = 0.381333 (1 samples)
Injected flit rate average = 0.349243 (1 samples)
	minimum = 0.322 (1 samples)
	maximum = 0.376 (1 samples)
Accepted flit rate average = 0.349273 (1 samples)
	minimum = 0.322 (1 samples)
	maximum = 0.381333 (1 samples)
Injected packet size average = 1 (1 samples)
Accepted packet size average = 1 (1 samples)
Hops average = 1.93744 (1 samples)
Total run time 3.45215
