BEGIN Configuration File: ../../../booksim2/src/examples/flatflyconfig
// $Id$

// Copyright (c) 2007-2015, Trustees of The Leland Stanford Junior University
// All rights reserved.
//
// Redistribution and use in source and binary forms, with or without
// modification, are permitted provided that the following conditions are met:
//
// Redistributions of source code must retain the above copyright notice, this
// list of conditions and the following disclaimer.
// Redistributions in binary form must reproduce the above copyright notice,
// this list of conditions and the following disclaimer in the documentation
// and/or other materials provided with the distribution.
//
// THIS SOFTWARE IS PROVIDED BY THE COPYRIGHT HOLDERS AND CONTRIBUTORS "AS IS"
// AND ANY EXPRESS OR IMPLIED WARRANTIES, INCLUDING, BUT NOT LIMITED TO, THE
// IMPLIED WARRANTIES OF MERCHANTABILITY AND FITNESS FOR A PARTICULAR PURPOSE
// ARE DISCLAIMED. IN NO EVENT SHALL THE COPYRIGHT OWNER OR CONTRIBUTORS BE
// LIABLE FOR ANY DIRECT, INDIRECT, INCIDENTAL, SPECIAL, EXEMPLARY, OR
// CONSEQUENTIAL DAMAGES (INCLUDING, BUT NOT LIMITED TO, PROCUREMENT OF
// SUBSTITUTE GOODS OR SERVICES; LOSS OF USE, DATA, OR PROFITS; OR BUSINESS
// INTERRUPTION) HOWEVER CAUSED AND ON ANY THEORY OF LIABILITY, WHETHER IN
// CONTRACT, STRICT LIABILITY, OR TORT (INCLUDING NEGLIGENCE OR OTHERWISE)
// ARISING IN ANY WAY OUT OF THE USE OF THIS SOFTWARE, EVEN IF ADVISED OF THE
// POSSIBILITY OF SUCH DAMAGE.

//A flattened butterfly configurate file with many tweaks from the
//default settings. 


// Flow control
// Total number of VCs must match the above assignments
num_vcs     = 2;
vc_buf_size = 16;

wait_for_tail_credit = 0;

//
// Router architectureq
//
vc_allocator = islip; 
sw_allocator = islip;
alloc_iters  = 3;

credit_delay   = 0;
routing_delay  = 1;
vc_alloc_delay = 1;
sw_alloc_delay = 1;
st_final_delay = 1;

input_speedup     = 1;
output_speedup    = 1;
internal_speedup  = 1.6;

//
// Traffic
//

warmup_periods = 3;

sample_period  = 1000;  

sim_count          = 1;

traffic       = uniform;


// Flatfly 
//
// #node = k^(n+1)
//
// x, y, specifies the arrangement of routers in x and y dim
// xr, yr specifiies the arayment of clients in a router
//
topology = flatfly;
subnets = 1;

c  = 16;
k  = 16;
n  = 1;

x  = 16;
y  = 1;
xr = 16;
yr = 1;

use_noc_latency = 0;

//
// Routing
//

routing_function = ran_min;

//1: batch mode, 0: injection mode
use_read_write = 0;

//for injection mode
packet_size = 1;
injection_rate = 0.1;

//for batch mode
read_request_size=1;
write_request_size=1;
read_reply_size=1;
write_reply_size=1;

read_request_begin_vc  = 0;
read_request_end_vc    = 3;
write_reply_begin_vc   = 4;
write_reply_end_vc     = 7;
read_reply_begin_vc    = 4;
read_reply_end_vc      = 7;
write_request_begin_vc = 0;
write_request_end_vc   = 3;

//latency: drains all packet, throughput:no drain?
sim_type = latency;

END Configuration File: ../../../booksim2/src/examples/flatflyconfig
OVERRIDE Parameter: sim_type=latency
OVERRIDE Parameter: traffic=uniform
OVERRIDE Parameter: injection_rate={0.45}
 Flat Bufferfly 
 k = 16 n = 1 c = 16
 each switch - total radix =  31
 # of switches = 16
 # of channels = 240
 # of nodes ( size of network ) = 256
Class 0:
Packet latency average = 10.6615
	minimum = 5
	maximum = 22
Network latency average = 10.6615
	minimum = 5
	maximum = 22
Slowest packet = 81875
Flit latency average = 10.6615
	minimum = 5
	maximum = 22
Slowest flit = 81875
Fragmentation average = 0
	minimum = 0
	maximum = 0
Injected packet rate average = 0.449957
	minimum = 0.407 (at node 229)
	maximum = 0.492 (at node 74)
Accepted packet rate average = 0.444941
	minimum = 0.382 (at node 108)
	maximum = 0.505 (at node 147)
Injected flit rate average = 0.449957
	minimum = 0.407 (at node 229)
	maximum = 0.492 (at node 74)
Accepted flit rate average= 0.444941
	minimum = 0.382 (at node 108)
	maximum = 0.505 (at node 147)
Injected packet length average = 1
Accepted packet length average = 1
Total in-flight flits = 1284 (0 measured)
latency change    = 1
throughput change = 1
Class 0:
Packet latency average = 10.6717
	minimum = 5
	maximum = 26
Network latency average = 10.6717
	minimum = 5
	maximum = 26
Slowest packet = 167153
Flit latency average = 10.6717
	minimum = 5
	maximum = 26
Slowest flit = 167153
Fragmentation average = 0
	minimum = 0
	maximum = 0
Injected packet rate average = 0.450199
	minimum = 0.421 (at node 229)
	maximum = 0.476 (at node 74)
Accepted packet rate average = 0.44774
	minimum = 0.412 (at node 110)
	maximum = 0.4855 (at node 190)
Injected flit rate average = 0.450199
	minimum = 0.421 (at node 229)
	maximum = 0.476 (at node 74)
Accepted flit rate average= 0.44774
	minimum = 0.412 (at node 110)
	maximum = 0.4855 (at node 190)
Injected packet length average = 1
Accepted packet length average = 1
Total in-flight flits = 1259 (0 measured)
latency change    = 0.000954081
throughput change = 0.00625101
Class 0:
Packet latency average = 10.6722
	minimum = 5
	maximum = 25
Network latency average = 10.6722
	minimum = 5
	maximum = 25
Slowest packet = 340356
Flit latency average = 10.6722
	minimum = 5
	maximum = 25
Slowest flit = 340356
Fragmentation average = 0
	minimum = 0
	maximum = 0
Injected packet rate average = 0.449871
	minimum = 0.405 (at node 252)
	maximum = 0.497 (at node 45)
Accepted packet rate average = 0.449922
	minimum = 0.378 (at node 21)
	maximum = 0.511 (at node 220)
Injected flit rate average = 0.449871
	minimum = 0.405 (at node 252)
	maximum = 0.497 (at node 45)
Accepted flit rate average= 0.449922
	minimum = 0.378 (at node 21)
	maximum = 0.511 (at node 220)
Injected packet length average = 1
Accepted packet length average = 1
Total in-flight flits = 1246 (0 measured)
latency change    = 4.54488e-05
throughput change = 0.00484893
Warmed up ...Time used is 3000 cycles
Class 0:
Packet latency average = 10.691
	minimum = 5
	maximum = 25
Network latency average = 10.691
	minimum = 5
	maximum = 25
Slowest packet = 422452
Flit latency average = 10.6942
	minimum = 5
	maximum = 25
Slowest flit = 422452
Fragmentation average = 0
	minimum = 0
	maximum = 0
Injected packet rate average = 0.450184
	minimum = 0.404 (at node 150)
	maximum = 0.499 (at node 61)
Accepted packet rate average = 0.450402
	minimum = 0.389 (at node 20)
	maximum = 0.517 (at node 244)
Injected flit rate average = 0.450184
	minimum = 0.404 (at node 150)
	maximum = 0.499 (at node 61)
Accepted flit rate average= 0.450402
	minimum = 0.389 (at node 20)
	maximum = 0.517 (at node 244)
Injected packet length average = 1
Accepted packet length average = 1
Total in-flight flits = 1190 (1190 measured)
latency change    = 0.00175732
throughput change = 0.00106675
Class 0:
Packet latency average = 10.6879
	minimum = 5
	maximum = 25
Network latency average = 10.6879
	minimum = 5
	maximum = 25
Slowest packet = 422452
Flit latency average = 10.6895
	minimum = 5
	maximum = 25
Slowest flit = 422452
Fragmentation average = 0
	minimum = 0
	maximum = 0
Injected packet rate average = 0.449807
	minimum = 0.4085 (at node 42)
	maximum = 0.479 (at node 241)
Accepted packet rate average = 0.449715
	minimum = 0.4075 (at node 246)
	maximum = 0.5025 (at node 174)
Injected flit rate average = 0.449807
	minimum = 0.4085 (at node 42)
	maximum = 0.479 (at node 241)
Accepted flit rate average= 0.449715
	minimum = 0.4075 (at node 246)
	maximum = 0.5025 (at node 174)
Injected packet length average = 1
Accepted packet length average = 1
Total in-flight flits = 1293 (1293 measured)
latency change    = 0.000287101
throughput change = 0.00152875
Class 0:
Packet latency average = 10.6759
	minimum = 5
	maximum = 25
Network latency average = 10.6759
	minimum = 5
	maximum = 25
Slowest packet = 422452
Flit latency average = 10.677
	minimum = 5
	maximum = 25
Slowest flit = 422452
Fragmentation average = 0
	minimum = 0
	maximum = 0
Injected packet rate average = 0.449487
	minimum = 0.419 (at node 150)
	maximum = 0.477333 (at node 241)
Accepted packet rate average = 0.449503
	minimum = 0.419333 (at node 246)
	maximum = 0.490667 (at node 121)
Injected flit rate average = 0.449487
	minimum = 0.419 (at node 150)
	maximum = 0.477333 (at node 241)
Accepted flit rate average= 0.449503
	minimum = 0.419333 (at node 246)
	maximum = 0.490667 (at node 121)
Injected packet length average = 1
Accepted packet length average = 1
Total in-flight flits = 1234 (1234 measured)
latency change    = 0.00112655
throughput change = 0.000472165
Draining all recorded packets ...
Draining remaining packets ...
Time taken is 6038 cycles
====== Overall Traffic Statistics ======
====== Traffic class 0 ======
Packet latency average = 10.6768 (1 samples)
	minimum = 5 (1 samples)
	maximum = 25 (1 samples)
Network latency average = 10.6768 (1 samples)
	minimum = 5 (1 samples)
	maximum = 25 (1 samples)
Flit latency average = 10.6778 (1 samples)
	minimum = 5 (1 samples)
	maximum = 25 (1 samples)
Fragmentation average = 0 (1 samples)
	minimum = 0 (1 samples)
	maximum = 0 (1 samples)
Injected packet rate average = 0.449487 (1 samples)
	minimum = 0.419 (1 samples)
	maximum = 0.477333 (1 samples)
Accepted packet rate average = 0.449503 (1 samples)
	minimum = 0.419333 (1 samples)
	maximum = 0.490667 (1 samples)
Injected flit rate average = 0.449487 (1 samples)
	minimum = 0.419 (1 samples)
	maximum = 0.477333 (1 samples)
Accepted flit rate average = 0.449503 (1 samples)
	minimum = 0.419333 (1 samples)
	maximum = 0.490667 (1 samples)
Injected packet size average = 1 (1 samples)
Accepted packet size average = 1 (1 samples)
Hops average = 1.93796 (1 samples)
Total run time 4.33248
