BEGIN Configuration File: ../../../booksim2/src/examples/flatflyconfig
// $Id$

// Copyright (c) 2007-2015, Trustees of The Leland Stanford Junior University
// All rights reserved.
//
// Redistribution and use in source and binary forms, with or without
// modification, are permitted provided that the following conditions are met:
//
// Redistributions of source code must retain the above copyright notice, this
// list of conditions and the following disclaimer.
// Redistributions in binary form must reproduce the above copyright notice,
// this list of conditions and the following disclaimer in the documentation
// and/or other materials provided with the distribution.
//
// THIS SOFTWARE IS PROVIDED BY THE COPYRIGHT HOLDERS AND CONTRIBUTORS "AS IS"
// AND ANY EXPRESS OR IMPLIED WARRANTIES, INCLUDING, BUT NOT LIMITED TO, THE
// IMPLIED WARRANTIES OF MERCHANTABILITY AND FITNESS FOR A PARTICULAR PURPOSE
// ARE DISCLAIMED. IN NO EVENT SHALL THE COPYRIGHT OWNER OR CONTRIBUTORS BE
// LIABLE FOR ANY DIRECT, INDIRECT, INCIDENTAL, SPECIAL, EXEMPLARY, OR
// CONSEQUENTIAL DAMAGES (INCLUDING, BUT NOT LIMITED TO, PROCUREMENT OF
// SUBSTITUTE GOODS OR SERVICES; LOSS OF USE, DATA, OR PROFITS; OR BUSINESS
// INTERRUPTION) HOWEVER CAUSED AND ON ANY THEORY OF LIABILITY, WHETHER IN
// CONTRACT, STRICT LIABILITY, OR TORT (INCLUDING NEGLIGENCE OR OTHERWISE)
// ARISING IN ANY WAY OUT OF THE USE OF THIS SOFTWARE, EVEN IF ADVISED OF THE
// POSSIBILITY OF SUCH DAMAGE.

//A flattened butterfly configurate file with many tweaks from the
//default settings. 


// Flow control
// Total number of VCs must match the above assignments
num_vcs     = 2;
vc_buf_size = 16;

wait_for_tail_credit = 0;

//
// Router architectureq
//
vc_allocator = islip; 
sw_allocator = islip;
alloc_iters  = 3;

credit_delay   = 0;
routing_delay  = 1;
vc_alloc_delay = 1;
sw_alloc_delay = 1;
st_final_delay = 1;

input_speedup     = 1;
output_speedup    = 1;
internal_speedup  = 1.6;

//
// Traffic
//

warmup_periods = 3;

sample_period  = 1000;  

sim_count          = 1;

traffic       = uniform;


// Flatfly 
//
// #node = k^(n+1)
//
// x, y, specifies the arrangement of routers in x and y dim
// xr, yr specifiies the arayment of clients in a router
//
topology = flatfly;
subnets = 1;

c  = 16;
k  = 16;
n  = 1;

x  = 16;
y  = 1;
xr = 16;
yr = 1;

use_noc_latency = 0;

//
// Routing
//

routing_function = ran_min;

//1: batch mode, 0: injection mode
use_read_write = 0;

//for injection mode
packet_size = 1;
injection_rate = 0.1;

//for batch mode
read_request_size=1;
write_request_size=1;
read_reply_size=1;
write_reply_size=1;

read_request_begin_vc  = 0;
read_request_end_vc    = 3;
write_reply_begin_vc   = 4;
write_reply_end_vc     = 7;
read_reply_begin_vc    = 4;
read_reply_end_vc      = 7;
write_request_begin_vc = 0;
write_request_end_vc   = 3;

//latency: drains all packet, throughput:no drain?
sim_type = latency;

END Configuration File: ../../../booksim2/src/examples/flatflyconfig
OVERRIDE Parameter: sim_type=latency
OVERRIDE Parameter: traffic=uniform
OVERRIDE Parameter: injection_rate={0.175}
 Flat Bufferfly 
 k = 16 n = 1 c = 16
 each switch - total radix =  31
 # of switches = 16
 # of channels = 240
 # of nodes ( size of network ) = 256
Class 0:
Packet latency average = 9.69343
	minimum = 5
	maximum = 15
Network latency average = 9.69343
	minimum = 5
	maximum = 15
Slowest packet = 10167
Flit latency average = 9.69343
	minimum = 5
	maximum = 15
Slowest flit = 10167
Fragmentation average = 0
	minimum = 0
	maximum = 0
Injected packet rate average = 0.174305
	minimum = 0.148 (at node 95)
	maximum = 0.207 (at node 239)
Accepted packet rate average = 0.172434
	minimum = 0.144 (at node 145)
	maximum = 0.211 (at node 248)
Injected flit rate average = 0.174305
	minimum = 0.148 (at node 95)
	maximum = 0.207 (at node 239)
Accepted flit rate average= 0.172434
	minimum = 0.144 (at node 145)
	maximum = 0.211 (at node 248)
Injected packet length average = 1
Accepted packet length average = 1
Total in-flight flits = 479 (0 measured)
latency change    = 1
throughput change = 1
Class 0:
Packet latency average = 9.69018
	minimum = 5
	maximum = 15
Network latency average = 9.69018
	minimum = 5
	maximum = 15
Slowest packet = 10167
Flit latency average = 9.69018
	minimum = 5
	maximum = 15
Slowest flit = 10167
Fragmentation average = 0
	minimum = 0
	maximum = 0
Injected packet rate average = 0.174355
	minimum = 0.1535 (at node 38)
	maximum = 0.1995 (at node 101)
Accepted packet rate average = 0.173518
	minimum = 0.147 (at node 100)
	maximum = 0.2015 (at node 248)
Injected flit rate average = 0.174355
	minimum = 0.1535 (at node 38)
	maximum = 0.1995 (at node 101)
Accepted flit rate average= 0.173518
	minimum = 0.147 (at node 100)
	maximum = 0.2015 (at node 248)
Injected packet length average = 1
Accepted packet length average = 1
Total in-flight flits = 429 (0 measured)
latency change    = 0.00033553
throughput change = 0.00624712
Class 0:
Packet latency average = 9.69298
	minimum = 5
	maximum = 16
Network latency average = 9.69298
	minimum = 5
	maximum = 16
Slowest packet = 99109
Flit latency average = 9.69298
	minimum = 5
	maximum = 16
Slowest flit = 99109
Fragmentation average = 0
	minimum = 0
	maximum = 0
Injected packet rate average = 0.17509
	minimum = 0.146 (at node 110)
	maximum = 0.215 (at node 78)
Accepted packet rate average = 0.174969
	minimum = 0.133 (at node 168)
	maximum = 0.204 (at node 1)
Injected flit rate average = 0.17509
	minimum = 0.146 (at node 110)
	maximum = 0.215 (at node 78)
Accepted flit rate average= 0.174969
	minimum = 0.133 (at node 168)
	maximum = 0.204 (at node 1)
Injected packet length average = 1
Accepted packet length average = 1
Total in-flight flits = 460 (0 measured)
latency change    = 0.000289287
throughput change = 0.00829389
Warmed up ...Time used is 3000 cycles
Class 0:
Packet latency average = 9.69683
	minimum = 5
	maximum = 14
Network latency average = 9.69683
	minimum = 5
	maximum = 14
Slowest packet = 135923
Flit latency average = 9.69867
	minimum = 5
	maximum = 14
Slowest flit = 135923
Fragmentation average = 0
	minimum = 0
	maximum = 0
Injected packet rate average = 0.174695
	minimum = 0.143 (at node 92)
	maximum = 0.212 (at node 238)
Accepted packet rate average = 0.174824
	minimum = 0.143 (at node 115)
	maximum = 0.209 (at node 169)
Injected flit rate average = 0.174695
	minimum = 0.143 (at node 92)
	maximum = 0.212 (at node 238)
Accepted flit rate average= 0.174824
	minimum = 0.143 (at node 115)
	maximum = 0.209 (at node 169)
Injected packet length average = 1
Accepted packet length average = 1
Total in-flight flits = 427 (427 measured)
latency change    = 0.000396748
throughput change = 0.000826723
Class 0:
Packet latency average = 9.69381
	minimum = 5
	maximum = 15
Network latency average = 9.69381
	minimum = 5
	maximum = 15
Slowest packet = 188435
Flit latency average = 9.69474
	minimum = 5
	maximum = 15
Slowest flit = 188435
Fragmentation average = 0
	minimum = 0
	maximum = 0
Injected packet rate average = 0.174723
	minimum = 0.1535 (at node 42)
	maximum = 0.1985 (at node 165)
Accepted packet rate average = 0.174758
	minimum = 0.153 (at node 195)
	maximum = 0.203 (at node 156)
Injected flit rate average = 0.174723
	minimum = 0.1535 (at node 42)
	maximum = 0.1985 (at node 165)
Accepted flit rate average= 0.174758
	minimum = 0.153 (at node 195)
	maximum = 0.203 (at node 156)
Injected packet length average = 1
Accepted packet length average = 1
Total in-flight flits = 442 (442 measured)
latency change    = 0.000311563
throughput change = 0.00037999
Class 0:
Packet latency average = 9.69429
	minimum = 5
	maximum = 15
Network latency average = 9.69429
	minimum = 5
	maximum = 15
Slowest packet = 188435
Flit latency average = 9.69491
	minimum = 5
	maximum = 15
Slowest flit = 188435
Fragmentation average = 0
	minimum = 0
	maximum = 0
Injected packet rate average = 0.175103
	minimum = 0.153333 (at node 225)
	maximum = 0.197333 (at node 204)
Accepted packet rate average = 0.175096
	minimum = 0.158333 (at node 70)
	maximum = 0.197333 (at node 156)
Injected flit rate average = 0.175103
	minimum = 0.153333 (at node 225)
	maximum = 0.197333 (at node 204)
Accepted flit rate average= 0.175096
	minimum = 0.158333 (at node 70)
	maximum = 0.197333 (at node 156)
Injected packet length average = 1
Accepted packet length average = 1
Total in-flight flits = 465 (465 measured)
latency change    = 4.92885e-05
throughput change = 0.00193346
Draining all recorded packets ...
Draining remaining packets ...
Time taken is 6025 cycles
====== Overall Traffic Statistics ======
====== Traffic class 0 ======
Packet latency average = 9.69487 (1 samples)
	minimum = 5 (1 samples)
	maximum = 15 (1 samples)
Network latency average = 9.69487 (1 samples)
	minimum = 5 (1 samples)
	maximum = 15 (1 samples)
Flit latency average = 9.69512 (1 samples)
	minimum = 5 (1 samples)
	maximum = 15 (1 samples)
Fragmentation average = 0 (1 samples)
	minimum = 0 (1 samples)
	maximum = 0 (1 samples)
Injected packet rate average = 0.175103 (1 samples)
	minimum = 0.153333 (1 samples)
	maximum = 0.197333 (1 samples)
Accepted packet rate average = 0.175096 (1 samples)
	minimum = 0.158333 (1 samples)
	maximum = 0.197333 (1 samples)
Injected flit rate average = 0.175103 (1 samples)
	minimum = 0.153333 (1 samples)
	maximum = 0.197333 (1 samples)
Accepted flit rate average = 0.175096 (1 samples)
	minimum = 0.158333 (1 samples)
	maximum = 0.197333 (1 samples)
Injected packet size average = 1 (1 samples)
Accepted packet size average = 1 (1 samples)
Hops average = 1.93832 (1 samples)
Total run time 1.86739
