BEGIN Configuration File: ../../../booksim2/src/examples/flatflyconfig
// $Id$

// Copyright (c) 2007-2015, Trustees of The Leland Stanford Junior University
// All rights reserved.
//
// Redistribution and use in source and binary forms, with or without
// modification, are permitted provided that the following conditions are met:
//
// Redistributions of source code must retain the above copyright notice, this
// list of conditions and the following disclaimer.
// Redistributions in binary form must reproduce the above copyright notice,
// this list of conditions and the following disclaimer in the documentation
// and/or other materials provided with the distribution.
//
// THIS SOFTWARE IS PROVIDED BY THE COPYRIGHT HOLDERS AND CONTRIBUTORS "AS IS"
// AND ANY EXPRESS OR IMPLIED WARRANTIES, INCLUDING, BUT NOT LIMITED TO, THE
// IMPLIED WARRANTIES OF MERCHANTABILITY AND FITNESS FOR A PARTICULAR PURPOSE
// ARE DISCLAIMED. IN NO EVENT SHALL THE COPYRIGHT OWNER OR CONTRIBUTORS BE
// LIABLE FOR ANY DIRECT, INDIRECT, INCIDENTAL, SPECIAL, EXEMPLARY, OR
// CONSEQUENTIAL DAMAGES (INCLUDING, BUT NOT LIMITED TO, PROCUREMENT OF
// SUBSTITUTE GOODS OR SERVICES; LOSS OF USE, DATA, OR PROFITS; OR BUSINESS
// INTERRUPTION) HOWEVER CAUSED AND ON ANY THEORY OF LIABILITY, WHETHER IN
// CONTRACT, STRICT LIABILITY, OR TORT (INCLUDING NEGLIGENCE OR OTHERWISE)
// ARISING IN ANY WAY OUT OF THE USE OF THIS SOFTWARE, EVEN IF ADVISED OF THE
// POSSIBILITY OF SUCH DAMAGE.

//A flattened butterfly configurate file with many tweaks from the
//default settings. 


// Flow control
// Total number of VCs must match the above assignments
num_vcs     = 2;
vc_buf_size = 16;

wait_for_tail_credit = 0;

//
// Router architectureq
//
vc_allocator = islip; 
sw_allocator = islip;
alloc_iters  = 3;

credit_delay   = 0;
routing_delay  = 1;
vc_alloc_delay = 1;
sw_alloc_delay = 1;
st_final_delay = 1;

input_speedup     = 1;
output_speedup    = 1;
internal_speedup  = 1.6;

//
// Traffic
//

warmup_periods = 3;

sample_period  = 1000;  

sim_count          = 1;

traffic       = uniform;


// Flatfly 
//
// #node = k^(n+1)
//
// x, y, specifies the arrangement of routers in x and y dim
// xr, yr specifiies the arayment of clients in a router
//
topology = flatfly;
subnets = 1;

c  = 16;
k  = 16;
n  = 1;

x  = 16;
y  = 1;
xr = 16;
yr = 1;

use_noc_latency = 0;

//
// Routing
//

routing_function = ran_min;

//1: batch mode, 0: injection mode
use_read_write = 0;

//for injection mode
packet_size = 1;
injection_rate = 0.1;

//for batch mode
read_request_size=1;
write_request_size=1;
read_reply_size=1;
write_reply_size=1;

read_request_begin_vc  = 0;
read_request_end_vc    = 3;
write_reply_begin_vc   = 4;
write_reply_end_vc     = 7;
read_reply_begin_vc    = 4;
read_reply_end_vc      = 7;
write_request_begin_vc = 0;
write_request_end_vc   = 3;

//latency: drains all packet, throughput:no drain?
sim_type = latency;

END Configuration File: ../../../booksim2/src/examples/flatflyconfig
OVERRIDE Parameter: sim_type=latency
OVERRIDE Parameter: traffic=uniform
OVERRIDE Parameter: injection_rate={0.5}
 Flat Bufferfly 
 k = 16 n = 1 c = 16
 each switch - total radix =  31
 # of switches = 16
 # of channels = 240
 # of nodes ( size of network ) = 256
Class 0:
Packet latency average = 11.0222
	minimum = 5
	maximum = 27
Network latency average = 11.0222
	minimum = 5
	maximum = 27
Slowest packet = 96373
Flit latency average = 11.0222
	minimum = 5
	maximum = 27
Slowest flit = 96373
Fragmentation average = 0
	minimum = 0
	maximum = 0
Injected packet rate average = 0.499969
	minimum = 0.448 (at node 173)
	maximum = 0.541 (at node 74)
Accepted packet rate average = 0.49425
	minimum = 0.433 (at node 110)
	maximum = 0.562 (at node 186)
Injected flit rate average = 0.499969
	minimum = 0.448 (at node 173)
	maximum = 0.541 (at node 74)
Accepted flit rate average= 0.49425
	minimum = 0.433 (at node 110)
	maximum = 0.562 (at node 186)
Injected packet length average = 1
Accepted packet length average = 1
Total in-flight flits = 1464 (0 measured)
latency change    = 1
throughput change = 1
Class 0:
Packet latency average = 11.0304
	minimum = 5
	maximum = 29
Network latency average = 11.0304
	minimum = 5
	maximum = 29
Slowest packet = 175858
Flit latency average = 11.0304
	minimum = 5
	maximum = 29
Slowest flit = 175858
Fragmentation average = 0
	minimum = 0
	maximum = 0
Injected packet rate average = 0.50033
	minimum = 0.474 (at node 134)
	maximum = 0.5275 (at node 200)
Accepted packet rate average = 0.497527
	minimum = 0.461 (at node 59)
	maximum = 0.5395 (at node 169)
Injected flit rate average = 0.50033
	minimum = 0.474 (at node 134)
	maximum = 0.5275 (at node 200)
Accepted flit rate average= 0.497527
	minimum = 0.461 (at node 59)
	maximum = 0.5395 (at node 169)
Injected packet length average = 1
Accepted packet length average = 1
Total in-flight flits = 1435 (0 measured)
latency change    = 0.000743354
throughput change = 0.00658726
Class 0:
Packet latency average = 11.0503
	minimum = 5
	maximum = 26
Network latency average = 11.0503
	minimum = 5
	maximum = 26
Slowest packet = 289120
Flit latency average = 11.0503
	minimum = 5
	maximum = 26
Slowest flit = 289120
Fragmentation average = 0
	minimum = 0
	maximum = 0
Injected packet rate average = 0.500254
	minimum = 0.457 (at node 252)
	maximum = 0.541 (at node 42)
Accepted packet rate average = 0.500145
	minimum = 0.439 (at node 21)
	maximum = 0.584 (at node 244)
Injected flit rate average = 0.500254
	minimum = 0.457 (at node 252)
	maximum = 0.541 (at node 42)
Accepted flit rate average= 0.500145
	minimum = 0.439 (at node 21)
	maximum = 0.584 (at node 244)
Injected packet length average = 1
Accepted packet length average = 1
Total in-flight flits = 1463 (0 measured)
latency change    = 0.00180062
throughput change = 0.00523286
Warmed up ...Time used is 3000 cycles
Class 0:
Packet latency average = 11.0393
	minimum = 5
	maximum = 28
Network latency average = 11.0393
	minimum = 5
	maximum = 28
Slowest packet = 466695
Flit latency average = 11.046
	minimum = 5
	maximum = 28
Slowest flit = 466695
Fragmentation average = 0
	minimum = 0
	maximum = 0
Injected packet rate average = 0.500387
	minimum = 0.459 (at node 153)
	maximum = 0.54 (at node 61)
Accepted packet rate average = 0.500828
	minimum = 0.435 (at node 20)
	maximum = 0.585 (at node 174)
Injected flit rate average = 0.500387
	minimum = 0.459 (at node 153)
	maximum = 0.54 (at node 61)
Accepted flit rate average= 0.500828
	minimum = 0.435 (at node 20)
	maximum = 0.585 (at node 174)
Injected packet length average = 1
Accepted packet length average = 1
Total in-flight flits = 1350 (1350 measured)
latency change    = 0.00100355
throughput change = 0.00136493
Class 0:
Packet latency average = 11.0448
	minimum = 5
	maximum = 28
Network latency average = 11.0448
	minimum = 5
	maximum = 28
Slowest packet = 466695
Flit latency average = 11.0482
	minimum = 5
	maximum = 28
Slowest flit = 466695
Fragmentation average = 0
	minimum = 0
	maximum = 0
Injected packet rate average = 0.499781
	minimum = 0.4635 (at node 42)
	maximum = 0.53 (at node 220)
Accepted packet rate average = 0.499791
	minimum = 0.456 (at node 186)
	maximum = 0.549 (at node 121)
Injected flit rate average = 0.499781
	minimum = 0.4635 (at node 42)
	maximum = 0.53 (at node 220)
Accepted flit rate average= 0.499791
	minimum = 0.456 (at node 186)
	maximum = 0.549 (at node 121)
Injected packet length average = 1
Accepted packet length average = 1
Total in-flight flits = 1458 (1458 measured)
latency change    = 0.00050404
throughput change = 0.00207509
Class 0:
Packet latency average = 11.0397
	minimum = 5
	maximum = 32
Network latency average = 11.0397
	minimum = 5
	maximum = 32
Slowest packet = 727438
Flit latency average = 11.042
	minimum = 5
	maximum = 32
Slowest flit = 727438
Fragmentation average = 0
	minimum = 0
	maximum = 0
Injected packet rate average = 0.499389
	minimum = 0.470667 (at node 125)
	maximum = 0.523 (at node 241)
Accepted packet rate average = 0.499447
	minimum = 0.458 (at node 186)
	maximum = 0.548333 (at node 121)
Injected flit rate average = 0.499389
	minimum = 0.470667 (at node 125)
	maximum = 0.523 (at node 241)
Accepted flit rate average= 0.499447
	minimum = 0.458 (at node 186)
	maximum = 0.548333 (at node 121)
Injected packet length average = 1
Accepted packet length average = 1
Total in-flight flits = 1419 (1419 measured)
latency change    = 0.000460702
throughput change = 0.000689565
Draining all recorded packets ...
Draining remaining packets ...
Time taken is 6037 cycles
====== Overall Traffic Statistics ======
====== Traffic class 0 ======
Packet latency average = 11.0406 (1 samples)
	minimum = 5 (1 samples)
	maximum = 32 (1 samples)
Network latency average = 11.0406 (1 samples)
	minimum = 5 (1 samples)
	maximum = 32 (1 samples)
Flit latency average = 11.0422 (1 samples)
	minimum = 5 (1 samples)
	maximum = 32 (1 samples)
Fragmentation average = 0 (1 samples)
	minimum = 0 (1 samples)
	maximum = 0 (1 samples)
Injected packet rate average = 0.499389 (1 samples)
	minimum = 0.470667 (1 samples)
	maximum = 0.523 (1 samples)
Accepted packet rate average = 0.499447 (1 samples)
	minimum = 0.458 (1 samples)
	maximum = 0.548333 (1 samples)
Injected flit rate average = 0.499389 (1 samples)
	minimum = 0.470667 (1 samples)
	maximum = 0.523 (1 samples)
Accepted flit rate average = 0.499447 (1 samples)
	minimum = 0.458 (1 samples)
	maximum = 0.548333 (1 samples)
Injected packet size average = 1 (1 samples)
Accepted packet size average = 1 (1 samples)
Hops average = 1.93775 (1 samples)
Total run time 4.89639
