BEGIN Configuration File: ../../../booksim2/src/examples/flatflyconfig
// $Id$

// Copyright (c) 2007-2015, Trustees of The Leland Stanford Junior University
// All rights reserved.
//
// Redistribution and use in source and binary forms, with or without
// modification, are permitted provided that the following conditions are met:
//
// Redistributions of source code must retain the above copyright notice, this
// list of conditions and the following disclaimer.
// Redistributions in binary form must reproduce the above copyright notice,
// this list of conditions and the following disclaimer in the documentation
// and/or other materials provided with the distribution.
//
// THIS SOFTWARE IS PROVIDED BY THE COPYRIGHT HOLDERS AND CONTRIBUTORS "AS IS"
// AND ANY EXPRESS OR IMPLIED WARRANTIES, INCLUDING, BUT NOT LIMITED TO, THE
// IMPLIED WARRANTIES OF MERCHANTABILITY AND FITNESS FOR A PARTICULAR PURPOSE
// ARE DISCLAIMED. IN NO EVENT SHALL THE COPYRIGHT OWNER OR CONTRIBUTORS BE
// LIABLE FOR ANY DIRECT, INDIRECT, INCIDENTAL, SPECIAL, EXEMPLARY, OR
// CONSEQUENTIAL DAMAGES (INCLUDING, BUT NOT LIMITED TO, PROCUREMENT OF
// SUBSTITUTE GOODS OR SERVICES; LOSS OF USE, DATA, OR PROFITS; OR BUSINESS
// INTERRUPTION) HOWEVER CAUSED AND ON ANY THEORY OF LIABILITY, WHETHER IN
// CONTRACT, STRICT LIABILITY, OR TORT (INCLUDING NEGLIGENCE OR OTHERWISE)
// ARISING IN ANY WAY OUT OF THE USE OF THIS SOFTWARE, EVEN IF ADVISED OF THE
// POSSIBILITY OF SUCH DAMAGE.

//A flattened butterfly configurate file with many tweaks from the
//default settings. 


// Flow control
// Total number of VCs must match the above assignments
num_vcs     = 2;
vc_buf_size = 16;

wait_for_tail_credit = 0;

//
// Router architectureq
//
vc_allocator = islip; 
sw_allocator = islip;
alloc_iters  = 3;

credit_delay   = 0;
routing_delay  = 1;
vc_alloc_delay = 1;
sw_alloc_delay = 1;
st_final_delay = 1;

input_speedup     = 1;
output_speedup    = 1;
internal_speedup  = 1.6;

//
// Traffic
//

warmup_periods = 3;

sample_period  = 1000;  

sim_count          = 1;

traffic       = uniform;


// Flatfly 
//
// #node = k^(n+1)
//
// x, y, specifies the arrangement of routers in x and y dim
// xr, yr specifiies the arayment of clients in a router
//
topology = flatfly;
subnets = 1;

c  = 16;
k  = 16;
n  = 1;

x  = 16;
y  = 1;
xr = 16;
yr = 1;

use_noc_latency = 0;

//
// Routing
//

routing_function = ran_min;

//1: batch mode, 0: injection mode
use_read_write = 0;

//for injection mode
packet_size = 1;
injection_rate = 0.1;

//for batch mode
read_request_size=1;
write_request_size=1;
read_reply_size=1;
write_reply_size=1;

read_request_begin_vc  = 0;
read_request_end_vc    = 3;
write_reply_begin_vc   = 4;
write_reply_end_vc     = 7;
read_reply_begin_vc    = 4;
read_reply_end_vc      = 7;
write_request_begin_vc = 0;
write_request_end_vc   = 3;

//latency: drains all packet, throughput:no drain?
sim_type = latency;

END Configuration File: ../../../booksim2/src/examples/flatflyconfig
OVERRIDE Parameter: sim_type=latency
OVERRIDE Parameter: traffic=uniform
OVERRIDE Parameter: injection_rate={0.525}
 Flat Bufferfly 
 k = 16 n = 1 c = 16
 each switch - total radix =  31
 # of switches = 16
 # of channels = 240
 # of nodes ( size of network ) = 256
Class 0:
Packet latency average = 11.2773
	minimum = 5
	maximum = 28
Network latency average = 11.2773
	minimum = 5
	maximum = 28
Slowest packet = 85838
Flit latency average = 11.2773
	minimum = 5
	maximum = 28
Slowest flit = 85838
Fragmentation average = 0
	minimum = 0
	maximum = 0
Injected packet rate average = 0.524824
	minimum = 0.472 (at node 173)
	maximum = 0.567 (at node 22)
Accepted packet rate average = 0.518848
	minimum = 0.45 (at node 110)
	maximum = 0.592 (at node 186)
Injected flit rate average = 0.524824
	minimum = 0.472 (at node 173)
	maximum = 0.567 (at node 22)
Accepted flit rate average= 0.518848
	minimum = 0.45 (at node 110)
	maximum = 0.592 (at node 186)
Injected packet length average = 1
Accepted packet length average = 1
Total in-flight flits = 1530 (0 measured)
latency change    = 1
throughput change = 1
Class 0:
Packet latency average = 11.2699
	minimum = 5
	maximum = 28
Network latency average = 11.2699
	minimum = 5
	maximum = 28
Slowest packet = 85838
Flit latency average = 11.2699
	minimum = 5
	maximum = 28
Slowest flit = 85838
Fragmentation average = 0
	minimum = 0
	maximum = 0
Injected packet rate average = 0.525207
	minimum = 0.498 (at node 134)
	maximum = 0.556 (at node 200)
Accepted packet rate average = 0.522256
	minimum = 0.486 (at node 205)
	maximum = 0.563 (at node 169)
Injected flit rate average = 0.525207
	minimum = 0.498 (at node 134)
	maximum = 0.556 (at node 200)
Accepted flit rate average= 0.522256
	minimum = 0.486 (at node 205)
	maximum = 0.563 (at node 169)
Injected packet length average = 1
Accepted packet length average = 1
Total in-flight flits = 1511 (0 measured)
latency change    = 0.000660018
throughput change = 0.00652593
Class 0:
Packet latency average = 11.3078
	minimum = 5
	maximum = 31
Network latency average = 11.3078
	minimum = 5
	maximum = 31
Slowest packet = 353972
Flit latency average = 11.3078
	minimum = 5
	maximum = 31
Slowest flit = 353972
Fragmentation average = 0
	minimum = 0
	maximum = 0
Injected packet rate average = 0.525082
	minimum = 0.478 (at node 146)
	maximum = 0.573 (at node 149)
Accepted packet rate average = 0.524824
	minimum = 0.475 (at node 147)
	maximum = 0.603 (at node 244)
Injected flit rate average = 0.525082
	minimum = 0.478 (at node 146)
	maximum = 0.573 (at node 149)
Accepted flit rate average= 0.524824
	minimum = 0.475 (at node 147)
	maximum = 0.603 (at node 244)
Injected packet length average = 1
Accepted packet length average = 1
Total in-flight flits = 1577 (0 measured)
latency change    = 0.00334968
throughput change = 0.00489375
Warmed up ...Time used is 3000 cycles
Class 0:
Packet latency average = 11.2952
	minimum = 5
	maximum = 28
Network latency average = 11.2952
	minimum = 5
	maximum = 28
Slowest packet = 528977
Flit latency average = 11.3031
	minimum = 5
	maximum = 28
Slowest flit = 528977
Fragmentation average = 0
	minimum = 0
	maximum = 0
Injected packet rate average = 0.525422
	minimum = 0.481 (at node 150)
	maximum = 0.568 (at node 36)
Accepted packet rate average = 0.525758
	minimum = 0.47 (at node 4)
	maximum = 0.598 (at node 174)
Injected flit rate average = 0.525422
	minimum = 0.481 (at node 150)
	maximum = 0.568 (at node 36)
Accepted flit rate average= 0.525758
	minimum = 0.47 (at node 4)
	maximum = 0.598 (at node 174)
Injected packet length average = 1
Accepted packet length average = 1
Total in-flight flits = 1491 (1491 measured)
latency change    = 0.00111296
throughput change = 0.00177571
Class 0:
Packet latency average = 11.2875
	minimum = 5
	maximum = 30
Network latency average = 11.2875
	minimum = 5
	maximum = 30
Slowest packet = 614624
Flit latency average = 11.2915
	minimum = 5
	maximum = 30
Slowest flit = 614624
Fragmentation average = 0
	minimum = 0
	maximum = 0
Injected packet rate average = 0.524803
	minimum = 0.4885 (at node 150)
	maximum = 0.552 (at node 132)
Accepted packet rate average = 0.524834
	minimum = 0.4855 (at node 186)
	maximum = 0.57 (at node 121)
Injected flit rate average = 0.524803
	minimum = 0.4885 (at node 150)
	maximum = 0.552 (at node 132)
Accepted flit rate average= 0.524834
	minimum = 0.4855 (at node 186)
	maximum = 0.57 (at node 121)
Injected packet length average = 1
Accepted packet length average = 1
Total in-flight flits = 1561 (1561 measured)
latency change    = 0.000683815
throughput change = 0.00176023
Class 0:
Packet latency average = 11.2805
	minimum = 5
	maximum = 30
Network latency average = 11.2805
	minimum = 5
	maximum = 30
Slowest packet = 614624
Flit latency average = 11.2832
	minimum = 5
	maximum = 30
Slowest flit = 614624
Fragmentation average = 0
	minimum = 0
	maximum = 0
Injected packet rate average = 0.524456
	minimum = 0.498667 (at node 139)
	maximum = 0.548 (at node 241)
Accepted packet rate average = 0.524544
	minimum = 0.483333 (at node 239)
	maximum = 0.568 (at node 121)
Injected flit rate average = 0.524456
	minimum = 0.498667 (at node 139)
	maximum = 0.548 (at node 241)
Accepted flit rate average= 0.524544
	minimum = 0.483333 (at node 239)
	maximum = 0.568 (at node 121)
Injected packet length average = 1
Accepted packet length average = 1
Total in-flight flits = 1509 (1509 measured)
latency change    = 0.00061652
throughput change = 0.000552315
Draining all recorded packets ...
Draining remaining packets ...
Time taken is 6038 cycles
====== Overall Traffic Statistics ======
====== Traffic class 0 ======
Packet latency average = 11.2821 (1 samples)
	minimum = 5 (1 samples)
	maximum = 30 (1 samples)
Network latency average = 11.2821 (1 samples)
	minimum = 5 (1 samples)
	maximum = 30 (1 samples)
Flit latency average = 11.2845 (1 samples)
	minimum = 5 (1 samples)
	maximum = 30 (1 samples)
Fragmentation average = 0 (1 samples)
	minimum = 0 (1 samples)
	maximum = 0 (1 samples)
Injected packet rate average = 0.524456 (1 samples)
	minimum = 0.498667 (1 samples)
	maximum = 0.548 (1 samples)
Accepted packet rate average = 0.524544 (1 samples)
	minimum = 0.483333 (1 samples)
	maximum = 0.568 (1 samples)
Injected flit rate average = 0.524456 (1 samples)
	minimum = 0.498667 (1 samples)
	maximum = 0.548 (1 samples)
Accepted flit rate average = 0.524544 (1 samples)
	minimum = 0.483333 (1 samples)
	maximum = 0.568 (1 samples)
Injected packet size average = 1 (1 samples)
Accepted packet size average = 1 (1 samples)
Hops average = 1.93832 (1 samples)
Total run time 5.01639
