BEGIN Configuration File: ../../../booksim2/src/examples/flatflyconfig
// $Id$

// Copyright (c) 2007-2015, Trustees of The Leland Stanford Junior University
// All rights reserved.
//
// Redistribution and use in source and binary forms, with or without
// modification, are permitted provided that the following conditions are met:
//
// Redistributions of source code must retain the above copyright notice, this
// list of conditions and the following disclaimer.
// Redistributions in binary form must reproduce the above copyright notice,
// this list of conditions and the following disclaimer in the documentation
// and/or other materials provided with the distribution.
//
// THIS SOFTWARE IS PROVIDED BY THE COPYRIGHT HOLDERS AND CONTRIBUTORS "AS IS"
// AND ANY EXPRESS OR IMPLIED WARRANTIES, INCLUDING, BUT NOT LIMITED TO, THE
// IMPLIED WARRANTIES OF MERCHANTABILITY AND FITNESS FOR A PARTICULAR PURPOSE
// ARE DISCLAIMED. IN NO EVENT SHALL THE COPYRIGHT OWNER OR CONTRIBUTORS BE
// LIABLE FOR ANY DIRECT, INDIRECT, INCIDENTAL, SPECIAL, EXEMPLARY, OR
// CONSEQUENTIAL DAMAGES (INCLUDING, BUT NOT LIMITED TO, PROCUREMENT OF
// SUBSTITUTE GOODS OR SERVICES; LOSS OF USE, DATA, OR PROFITS; OR BUSINESS
// INTERRUPTION) HOWEVER CAUSED AND ON ANY THEORY OF LIABILITY, WHETHER IN
// CONTRACT, STRICT LIABILITY, OR TORT (INCLUDING NEGLIGENCE OR OTHERWISE)
// ARISING IN ANY WAY OUT OF THE USE OF THIS SOFTWARE, EVEN IF ADVISED OF THE
// POSSIBILITY OF SUCH DAMAGE.

//A flattened butterfly configurate file with many tweaks from the
//default settings. 


// Flow control
// Total number of VCs must match the above assignments
num_vcs     = 2;
vc_buf_size = 16;

wait_for_tail_credit = 0;

//
// Router architectureq
//
vc_allocator = islip; 
sw_allocator = islip;
alloc_iters  = 3;

credit_delay   = 0;
routing_delay  = 1;
vc_alloc_delay = 1;
sw_alloc_delay = 1;
st_final_delay = 1;

input_speedup     = 1;
output_speedup    = 1;
internal_speedup  = 1.6;

//
// Traffic
//

warmup_periods = 3;

sample_period  = 1000;  

sim_count          = 1;

traffic       = uniform;


// Flatfly 
//
// #node = k^(n+1)
//
// x, y, specifies the arrangement of routers in x and y dim
// xr, yr specifiies the arayment of clients in a router
//
topology = flatfly;
subnets = 1;

c  = 16;
k  = 16;
n  = 1;

x  = 16;
y  = 1;
xr = 16;
yr = 1;

use_noc_latency = 0;

//
// Routing
//

routing_function = ran_min;

//1: batch mode, 0: injection mode
use_read_write = 0;

//for injection mode
packet_size = 1;
injection_rate = 0.1;

//for batch mode
read_request_size=1;
write_request_size=1;
read_reply_size=1;
write_reply_size=1;

read_request_begin_vc  = 0;
read_request_end_vc    = 3;
write_reply_begin_vc   = 4;
write_reply_end_vc     = 7;
read_reply_begin_vc    = 4;
read_reply_end_vc      = 7;
write_request_begin_vc = 0;
write_request_end_vc   = 3;

//latency: drains all packet, throughput:no drain?
sim_type = latency;

END Configuration File: ../../../booksim2/src/examples/flatflyconfig
OVERRIDE Parameter: sim_type=latency
OVERRIDE Parameter: traffic=uniform
OVERRIDE Parameter: injection_rate={0.6}
 Flat Bufferfly 
 k = 16 n = 1 c = 16
 each switch - total radix =  31
 # of switches = 16
 # of channels = 240
 # of nodes ( size of network ) = 256
Class 0:
Packet latency average = 12.365
	minimum = 5
	maximum = 48
Network latency average = 12.365
	minimum = 5
	maximum = 48
Slowest packet = 99202
Flit latency average = 12.365
	minimum = 5
	maximum = 48
Slowest flit = 99202
Fragmentation average = 0
	minimum = 0
	maximum = 0
Injected packet rate average = 0.599637
	minimum = 0.554 (at node 173)
	maximum = 0.636 (at node 140)
Accepted packet rate average = 0.592086
	minimum = 0.523 (at node 110)
	maximum = 0.665 (at node 248)
Injected flit rate average = 0.599637
	minimum = 0.554 (at node 173)
	maximum = 0.636 (at node 140)
Accepted flit rate average= 0.592086
	minimum = 0.523 (at node 110)
	maximum = 0.665 (at node 248)
Injected packet length average = 1
Accepted packet length average = 1
Total in-flight flits = 1933 (0 measured)
latency change    = 1
throughput change = 1
Class 0:
Packet latency average = 12.3757
	minimum = 5
	maximum = 48
Network latency average = 12.3757
	minimum = 5
	maximum = 48
Slowest packet = 99202
Flit latency average = 12.3757
	minimum = 5
	maximum = 48
Slowest flit = 99202
Fragmentation average = 0
	minimum = 0
	maximum = 0
Injected packet rate average = 0.599807
	minimum = 0.566 (at node 203)
	maximum = 0.63 (at node 10)
Accepted packet rate average = 0.596076
	minimum = 0.55 (at node 195)
	maximum = 0.6425 (at node 65)
Injected flit rate average = 0.599807
	minimum = 0.566 (at node 203)
	maximum = 0.63 (at node 10)
Accepted flit rate average= 0.596076
	minimum = 0.55 (at node 195)
	maximum = 0.6425 (at node 65)
Injected packet length average = 1
Accepted packet length average = 1
Total in-flight flits = 1910 (0 measured)
latency change    = 0.000857101
throughput change = 0.00669417
Class 0:
Packet latency average = 12.4276
	minimum = 5
	maximum = 39
Network latency average = 12.4276
	minimum = 5
	maximum = 39
Slowest packet = 400396
Flit latency average = 12.4276
	minimum = 5
	maximum = 39
Slowest flit = 400396
Fragmentation average = 0
	minimum = 0
	maximum = 0
Injected packet rate average = 0.59973
	minimum = 0.556 (at node 1)
	maximum = 0.648 (at node 149)
Accepted packet rate average = 0.599609
	minimum = 0.531 (at node 62)
	maximum = 0.676 (at node 244)
Injected flit rate average = 0.59973
	minimum = 0.556 (at node 1)
	maximum = 0.648 (at node 149)
Accepted flit rate average= 0.599609
	minimum = 0.531 (at node 62)
	maximum = 0.676 (at node 244)
Injected packet length average = 1
Accepted packet length average = 1
Total in-flight flits = 1941 (0 measured)
latency change    = 0.00417781
throughput change = 0.00589251
Warmed up ...Time used is 3000 cycles
Class 0:
Packet latency average = 12.4499
	minimum = 5
	maximum = 39
Network latency average = 12.4499
	minimum = 5
	maximum = 39
Slowest packet = 532271
Flit latency average = 12.4639
	minimum = 5
	maximum = 39
Slowest flit = 532271
Fragmentation average = 0
	minimum = 0
	maximum = 0
Injected packet rate average = 0.600191
	minimum = 0.562 (at node 146)
	maximum = 0.639 (at node 36)
Accepted packet rate average = 0.600207
	minimum = 0.51 (at node 186)
	maximum = 0.669 (at node 255)
Injected flit rate average = 0.600191
	minimum = 0.562 (at node 146)
	maximum = 0.639 (at node 36)
Accepted flit rate average= 0.600207
	minimum = 0.51 (at node 186)
	maximum = 0.669 (at node 255)
Injected packet length average = 1
Accepted packet length average = 1
Total in-flight flits = 1937 (1937 measured)
latency change    = 0.00179294
throughput change = 0.00099575
Class 0:
Packet latency average = 12.4591
	minimum = 5
	maximum = 39
Network latency average = 12.4591
	minimum = 5
	maximum = 39
Slowest packet = 532271
Flit latency average = 12.4661
	minimum = 5
	maximum = 39
Slowest flit = 532271
Fragmentation average = 0
	minimum = 0
	maximum = 0
Injected packet rate average = 0.599785
	minimum = 0.5715 (at node 146)
	maximum = 0.6315 (at node 132)
Accepted packet rate average = 0.599789
	minimum = 0.5395 (at node 186)
	maximum = 0.6575 (at node 121)
Injected flit rate average = 0.599785
	minimum = 0.5715 (at node 146)
	maximum = 0.6315 (at node 132)
Accepted flit rate average= 0.599789
	minimum = 0.5395 (at node 186)
	maximum = 0.6575 (at node 121)
Injected packet length average = 1
Accepted packet length average = 1
Total in-flight flits = 1939 (1939 measured)
latency change    = 0.000740427
throughput change = 0.00069686
Class 0:
Packet latency average = 12.4368
	minimum = 5
	maximum = 39
Network latency average = 12.4368
	minimum = 5
	maximum = 39
Slowest packet = 532271
Flit latency average = 12.4415
	minimum = 5
	maximum = 39
Slowest flit = 532271
Fragmentation average = 0
	minimum = 0
	maximum = 0
Injected packet rate average = 0.599595
	minimum = 0.575667 (at node 139)
	maximum = 0.621667 (at node 142)
Accepted packet rate average = 0.599643
	minimum = 0.551667 (at node 186)
	maximum = 0.644667 (at node 225)
Injected flit rate average = 0.599595
	minimum = 0.575667 (at node 139)
	maximum = 0.621667 (at node 142)
Accepted flit rate average= 0.599643
	minimum = 0.551667 (at node 186)
	maximum = 0.644667 (at node 225)
Injected packet length average = 1
Accepted packet length average = 1
Total in-flight flits = 1904 (1904 measured)
latency change    = 0.00179688
throughput change = 0.0002432
Draining all recorded packets ...
Draining remaining packets ...
Time taken is 6051 cycles
====== Overall Traffic Statistics ======
====== Traffic class 0 ======
Packet latency average = 12.4394 (1 samples)
	minimum = 5 (1 samples)
	maximum = 39 (1 samples)
Network latency average = 12.4394 (1 samples)
	minimum = 5 (1 samples)
	maximum = 39 (1 samples)
Flit latency average = 12.4429 (1 samples)
	minimum = 5 (1 samples)
	maximum = 39 (1 samples)
Fragmentation average = 0 (1 samples)
	minimum = 0 (1 samples)
	maximum = 0 (1 samples)
Injected packet rate average = 0.599595 (1 samples)
	minimum = 0.575667 (1 samples)
	maximum = 0.621667 (1 samples)
Accepted packet rate average = 0.599643 (1 samples)
	minimum = 0.551667 (1 samples)
	maximum = 0.644667 (1 samples)
Injected flit rate average = 0.599595 (1 samples)
	minimum = 0.575667 (1 samples)
	maximum = 0.621667 (1 samples)
Accepted flit rate average = 0.599643 (1 samples)
	minimum = 0.551667 (1 samples)
	maximum = 0.644667 (1 samples)
Injected packet size average = 1 (1 samples)
Accepted packet size average = 1 (1 samples)
Hops average = 1.93715 (1 samples)
Total run time 5.61253
