BEGIN Configuration File: ../../../booksim2/src/examples/flatflyconfig
// $Id$

// Copyright (c) 2007-2015, Trustees of The Leland Stanford Junior University
// All rights reserved.
//
// Redistribution and use in source and binary forms, with or without
// modification, are permitted provided that the following conditions are met:
//
// Redistributions of source code must retain the above copyright notice, this
// list of conditions and the following disclaimer.
// Redistributions in binary form must reproduce the above copyright notice,
// this list of conditions and the following disclaimer in the documentation
// and/or other materials provided with the distribution.
//
// THIS SOFTWARE IS PROVIDED BY THE COPYRIGHT HOLDERS AND CONTRIBUTORS "AS IS"
// AND ANY EXPRESS OR IMPLIED WARRANTIES, INCLUDING, BUT NOT LIMITED TO, THE
// IMPLIED WARRANTIES OF MERCHANTABILITY AND FITNESS FOR A PARTICULAR PURPOSE
// ARE DISCLAIMED. IN NO EVENT SHALL THE COPYRIGHT OWNER OR CONTRIBUTORS BE
// LIABLE FOR ANY DIRECT, INDIRECT, INCIDENTAL, SPECIAL, EXEMPLARY, OR
// CONSEQUENTIAL DAMAGES (INCLUDING, BUT NOT LIMITED TO, PROCUREMENT OF
// SUBSTITUTE GOODS OR SERVICES; LOSS OF USE, DATA, OR PROFITS; OR BUSINESS
// INTERRUPTION) HOWEVER CAUSED AND ON ANY THEORY OF LIABILITY, WHETHER IN
// CONTRACT, STRICT LIABILITY, OR TORT (INCLUDING NEGLIGENCE OR OTHERWISE)
// ARISING IN ANY WAY OUT OF THE USE OF THIS SOFTWARE, EVEN IF ADVISED OF THE
// POSSIBILITY OF SUCH DAMAGE.

//A flattened butterfly configurate file with many tweaks from the
//default settings. 


// Flow control
// Total number of VCs must match the above assignments
num_vcs     = 2;
vc_buf_size = 16;

wait_for_tail_credit = 0;

//
// Router architectureq
//
vc_allocator = islip; 
sw_allocator = islip;
alloc_iters  = 3;

credit_delay   = 0;
routing_delay  = 1;
vc_alloc_delay = 1;
sw_alloc_delay = 1;
st_final_delay = 1;

input_speedup     = 1;
output_speedup    = 1;
internal_speedup  = 1.6;

//
// Traffic
//

warmup_periods = 3;

sample_period  = 1000;  

sim_count          = 1;

traffic       = uniform;


// Flatfly 
//
// #node = k^(n+1)
//
// x, y, specifies the arrangement of routers in x and y dim
// xr, yr specifiies the arayment of clients in a router
//
topology = flatfly;
subnets = 1;

c  = 16;
k  = 16;
n  = 1;

x  = 16;
y  = 1;
xr = 16;
yr = 1;

use_noc_latency = 0;

//
// Routing
//

routing_function = ran_min;

//1: batch mode, 0: injection mode
use_read_write = 0;

//for injection mode
packet_size = 1;
injection_rate = 0.1;

//for batch mode
read_request_size=1;
write_request_size=1;
read_reply_size=1;
write_reply_size=1;

read_request_begin_vc  = 0;
read_request_end_vc    = 3;
write_reply_begin_vc   = 4;
write_reply_end_vc     = 7;
read_reply_begin_vc    = 4;
read_reply_end_vc      = 7;
write_request_begin_vc = 0;
write_request_end_vc   = 3;

//latency: drains all packet, throughput:no drain?
sim_type = latency;

END Configuration File: ../../../booksim2/src/examples/flatflyconfig
OVERRIDE Parameter: sim_type=latency
OVERRIDE Parameter: traffic=uniform
OVERRIDE Parameter: injection_rate={0.575}
 Flat Bufferfly 
 k = 16 n = 1 c = 16
 each switch - total radix =  31
 # of switches = 16
 # of channels = 240
 # of nodes ( size of network ) = 256
Class 0:
Packet latency average = 11.8607
	minimum = 5
	maximum = 35
Network latency average = 11.8607
	minimum = 5
	maximum = 35
Slowest packet = 52367
Flit latency average = 11.8607
	minimum = 5
	maximum = 35
Slowest flit = 52367
Fragmentation average = 0
	minimum = 0
	maximum = 0
Injected packet rate average = 0.574418
	minimum = 0.528 (at node 172)
	maximum = 0.612 (at node 26)
Accepted packet rate average = 0.56727
	minimum = 0.503 (at node 110)
	maximum = 0.639 (at node 186)
Injected flit rate average = 0.574418
	minimum = 0.528 (at node 172)
	maximum = 0.612 (at node 26)
Accepted flit rate average= 0.56727
	minimum = 0.503 (at node 110)
	maximum = 0.639 (at node 186)
Injected packet length average = 1
Accepted packet length average = 1
Total in-flight flits = 1830 (0 measured)
latency change    = 1
throughput change = 1
Class 0:
Packet latency average = 11.9113
	minimum = 5
	maximum = 35
Network latency average = 11.9113
	minimum = 5
	maximum = 35
Slowest packet = 52367
Flit latency average = 11.9113
	minimum = 5
	maximum = 35
Slowest flit = 52367
Fragmentation average = 0
	minimum = 0
	maximum = 0
Injected packet rate average = 0.575082
	minimum = 0.5375 (at node 203)
	maximum = 0.6015 (at node 26)
Accepted packet rate average = 0.571564
	minimum = 0.5275 (at node 195)
	maximum = 0.617 (at node 65)
Injected flit rate average = 0.575082
	minimum = 0.5375 (at node 203)
	maximum = 0.6015 (at node 26)
Accepted flit rate average= 0.571564
	minimum = 0.5275 (at node 195)
	maximum = 0.617 (at node 65)
Injected packet length average = 1
Accepted packet length average = 1
Total in-flight flits = 1801 (0 measured)
latency change    = 0.00424887
throughput change = 0.00751433
Class 0:
Packet latency average = 11.9831
	minimum = 5
	maximum = 38
Network latency average = 11.9831
	minimum = 5
	maximum = 38
Slowest packet = 333496
Flit latency average = 11.9831
	minimum = 5
	maximum = 38
Slowest flit = 333496
Fragmentation average = 0
	minimum = 0
	maximum = 0
Injected packet rate average = 0.574969
	minimum = 0.522 (at node 146)
	maximum = 0.625 (at node 149)
Accepted packet rate average = 0.575105
	minimum = 0.518 (at node 127)
	maximum = 0.651 (at node 244)
Injected flit rate average = 0.574969
	minimum = 0.522 (at node 146)
	maximum = 0.625 (at node 149)
Accepted flit rate average= 0.575105
	minimum = 0.518 (at node 127)
	maximum = 0.651 (at node 244)
Injected packet length average = 1
Accepted packet length average = 1
Total in-flight flits = 1766 (0 measured)
latency change    = 0.00599547
throughput change = 0.00615716
Warmed up ...Time used is 3000 cycles
Class 0:
Packet latency average = 11.9404
	minimum = 5
	maximum = 35
Network latency average = 11.9404
	minimum = 5
	maximum = 35
Slowest packet = 514359
Flit latency average = 11.9478
	minimum = 5
	maximum = 35
Slowest flit = 514359
Fragmentation average = 0
	minimum = 0
	maximum = 0
Injected packet rate average = 0.575395
	minimum = 0.533 (at node 243)
	maximum = 0.617 (at node 36)
Accepted packet rate average = 0.575438
	minimum = 0.501 (at node 186)
	maximum = 0.639 (at node 22)
Injected flit rate average = 0.575395
	minimum = 0.533 (at node 243)
	maximum = 0.617 (at node 36)
Accepted flit rate average= 0.575438
	minimum = 0.501 (at node 186)
	maximum = 0.639 (at node 22)
Injected packet length average = 1
Accepted packet length average = 1
Total in-flight flits = 1755 (1755 measured)
latency change    = 0.00357584
throughput change = 0.000577007
Class 0:
Packet latency average = 11.9317
	minimum = 5
	maximum = 40
Network latency average = 11.9317
	minimum = 5
	maximum = 40
Slowest packet = 603452
Flit latency average = 11.9354
	minimum = 5
	maximum = 40
Slowest flit = 603452
Fragmentation average = 0
	minimum = 0
	maximum = 0
Injected packet rate average = 0.574699
	minimum = 0.548 (at node 150)
	maximum = 0.6045 (at node 132)
Accepted packet rate average = 0.57466
	minimum = 0.524 (at node 186)
	maximum = 0.633 (at node 121)
Injected flit rate average = 0.574699
	minimum = 0.548 (at node 150)
	maximum = 0.6045 (at node 132)
Accepted flit rate average= 0.57466
	minimum = 0.524 (at node 186)
	maximum = 0.633 (at node 121)
Injected packet length average = 1
Accepted packet length average = 1
Total in-flight flits = 1786 (1786 measured)
latency change    = 0.000733189
throughput change = 0.0013527
Class 0:
Packet latency average = 11.9348
	minimum = 5
	maximum = 40
Network latency average = 11.9348
	minimum = 5
	maximum = 40
Slowest packet = 603452
Flit latency average = 11.9372
	minimum = 5
	maximum = 40
Slowest flit = 603452
Fragmentation average = 0
	minimum = 0
	maximum = 0
Injected packet rate average = 0.574504
	minimum = 0.547667 (at node 139)
	maximum = 0.598 (at node 215)
Accepted packet rate average = 0.574467
	minimum = 0.529667 (at node 186)
	maximum = 0.619333 (at node 225)
Injected flit rate average = 0.574504
	minimum = 0.547667 (at node 139)
	maximum = 0.598 (at node 215)
Accepted flit rate average= 0.574467
	minimum = 0.529667 (at node 186)
	maximum = 0.619333 (at node 225)
Injected packet length average = 1
Accepted packet length average = 1
Total in-flight flits = 1794 (1794 measured)
latency change    = 0.000258984
throughput change = 0.000335456
Draining all recorded packets ...
Draining remaining packets ...
Time taken is 6053 cycles
====== Overall Traffic Statistics ======
====== Traffic class 0 ======
Packet latency average = 11.9381 (1 samples)
	minimum = 5 (1 samples)
	maximum = 40 (1 samples)
Network latency average = 11.9381 (1 samples)
	minimum = 5 (1 samples)
	maximum = 40 (1 samples)
Flit latency average = 11.9395 (1 samples)
	minimum = 5 (1 samples)
	maximum = 40 (1 samples)
Fragmentation average = 0 (1 samples)
	minimum = 0 (1 samples)
	maximum = 0 (1 samples)
Injected packet rate average = 0.574504 (1 samples)
	minimum = 0.547667 (1 samples)
	maximum = 0.598 (1 samples)
Accepted packet rate average = 0.574467 (1 samples)
	minimum = 0.529667 (1 samples)
	maximum = 0.619333 (1 samples)
Injected flit rate average = 0.574504 (1 samples)
	minimum = 0.547667 (1 samples)
	maximum = 0.598 (1 samples)
Accepted flit rate average = 0.574467 (1 samples)
	minimum = 0.529667 (1 samples)
	maximum = 0.619333 (1 samples)
Injected packet size average = 1 (1 samples)
Accepted packet size average = 1 (1 samples)
Hops average = 1.93774 (1 samples)
Total run time 5.4041
