BEGIN Configuration File: ../../../../booksim2/src/examples/flatflyconfig
// $Id$

// Copyright (c) 2007-2015, Trustees of The Leland Stanford Junior University
// All rights reserved.
//
// Redistribution and use in source and binary forms, with or without
// modification, are permitted provided that the following conditions are met:
//
// Redistributions of source code must retain the above copyright notice, this
// list of conditions and the following disclaimer.
// Redistributions in binary form must reproduce the above copyright notice,
// this list of conditions and the following disclaimer in the documentation
// and/or other materials provided with the distribution.
//
// THIS SOFTWARE IS PROVIDED BY THE COPYRIGHT HOLDERS AND CONTRIBUTORS "AS IS"
// AND ANY EXPRESS OR IMPLIED WARRANTIES, INCLUDING, BUT NOT LIMITED TO, THE
// IMPLIED WARRANTIES OF MERCHANTABILITY AND FITNESS FOR A PARTICULAR PURPOSE
// ARE DISCLAIMED. IN NO EVENT SHALL THE COPYRIGHT OWNER OR CONTRIBUTORS BE
// LIABLE FOR ANY DIRECT, INDIRECT, INCIDENTAL, SPECIAL, EXEMPLARY, OR
// CONSEQUENTIAL DAMAGES (INCLUDING, BUT NOT LIMITED TO, PROCUREMENT OF
// SUBSTITUTE GOODS OR SERVICES; LOSS OF USE, DATA, OR PROFITS; OR BUSINESS
// INTERRUPTION) HOWEVER CAUSED AND ON ANY THEORY OF LIABILITY, WHETHER IN
// CONTRACT, STRICT LIABILITY, OR TORT (INCLUDING NEGLIGENCE OR OTHERWISE)
// ARISING IN ANY WAY OUT OF THE USE OF THIS SOFTWARE, EVEN IF ADVISED OF THE
// POSSIBILITY OF SUCH DAMAGE.

//A flattened butterfly configurate file with many tweaks from the
//default settings. 


// Flow control
// Total number of VCs must match the above assignments
num_vcs     = 2;
vc_buf_size = 128;

wait_for_tail_credit = 0;

//
// Router architectureq
//
vc_allocator = islip; 
sw_allocator = islip;
alloc_iters  = 3;

credit_delay   = 0;
routing_delay  = 1;
vc_alloc_delay = 1;
sw_alloc_delay = 1;
st_final_delay = 1;

input_speedup     = 1;
output_speedup    = 1;
internal_speedup  = 1.6;

//
// Traffic
//

warmup_periods = 3;

sample_period  = 1000;  

sim_count          = 1;

traffic       = uniform;


// Flatfly 
//
// #node = k^(n+1)
//
// x, y, specifies the arrangement of routers in x and y dim
// xr, yr specifiies the arayment of clients in a router
//
topology = flatfly;
subnets = 1;

c  = 16;
k  = 16;
n  = 1;

x  = 16;
y  = 1;
xr = 16;
yr = 1;

use_noc_latency = 0;

//
// Routing
//

routing_function = ran_min;

//1: batch mode, 0: injection mode
use_read_write = 0;

//for injection mode
packet_size = 1;
injection_rate = 0.1;

//for batch mode
read_request_size=1;
write_request_size=1;
read_reply_size=1;
write_reply_size=1;

read_request_begin_vc  = 0;
read_request_end_vc    = 3;
write_reply_begin_vc   = 4;
write_reply_end_vc     = 7;
read_reply_begin_vc    = 4;
read_reply_end_vc      = 7;
write_request_begin_vc = 0;
write_request_end_vc   = 3;

//latency: drains all packet, throughput:no drain?
sim_type = latency;

END Configuration File: ../../../../booksim2/src/examples/flatflyconfig
OVERRIDE Parameter: sim_type=latency
OVERRIDE Parameter: traffic=uniform
OVERRIDE Parameter: injection_rate={0.975}
 Flat Bufferfly 
 k = 16 n = 1 c = 16
 each switch - total radix =  31
 # of switches = 16
 # of channels = 240
 # of nodes ( size of network ) = 256
Class 0:
Packet latency average = 151.916
	minimum = 5
	maximum = 405
Network latency average = 151.916
	minimum = 5
	maximum = 405
Slowest packet = 143298
Flit latency average = 151.916
	minimum = 5
	maximum = 405
Slowest flit = 143298
Fragmentation average = 0
	minimum = 0
	maximum = 0
Injected packet rate average = 0.975422
	minimum = 0.956 (at node 157)
	maximum = 0.986 (at node 23)
Accepted packet rate average = 0.73123
	minimum = 0.671 (at node 110)
	maximum = 0.8 (at node 61)
Injected flit rate average = 0.975422
	minimum = 0.956 (at node 157)
	maximum = 0.986 (at node 23)
Accepted flit rate average= 0.73123
	minimum = 0.671 (at node 110)
	maximum = 0.8 (at node 61)
Injected packet length average = 1
Accepted packet length average = 1
Total in-flight flits = 62513 (0 measured)
latency change    = 1
throughput change = 1
Class 0:
Packet latency average = 254.523
	minimum = 5
	maximum = 606
Network latency average = 254.476
	minimum = 5
	maximum = 606
Slowest packet = 347671
Flit latency average = 254.476
	minimum = 5
	maximum = 606
Slowest flit = 347671
Fragmentation average = 0
	minimum = 0
	maximum = 0
Injected packet rate average = 0.939137
	minimum = 0.918 (at node 148)
	maximum = 0.966 (at node 36)
Accepted packet rate average = 0.752914
	minimum = 0.6965 (at node 21)
	maximum = 0.8 (at node 68)
Injected flit rate average = 0.939137
	minimum = 0.918 (at node 148)
	maximum = 0.966 (at node 36)
Accepted flit rate average= 0.752914
	minimum = 0.6965 (at node 21)
	maximum = 0.8 (at node 68)
Injected packet length average = 1
Accepted packet length average = 1
Total in-flight flits = 95437 (0 measured)
latency change    = 0.403134
throughput change = 0.0287996
Class 0:
Packet latency average = 558.632
	minimum = 258
	maximum = 808
Network latency average = 478.088
	minimum = 258
	maximum = 646
Slowest packet = 406765
Flit latency average = 478.088
	minimum = 258
	maximum = 646
Slowest flit = 503694
Fragmentation average = 0
	minimum = 0
	maximum = 0
Injected packet rate average = 0.774754
	minimum = 0.733 (at node 43)
	maximum = 0.815 (at node 255)
Accepted packet rate average = 0.774438
	minimum = 0.71 (at node 20)
	maximum = 0.883 (at node 174)
Injected flit rate average = 0.774754
	minimum = 0.733 (at node 43)
	maximum = 0.815 (at node 255)
Accepted flit rate average= 0.774438
	minimum = 0.71 (at node 20)
	maximum = 0.883 (at node 174)
Injected packet length average = 1
Accepted packet length average = 1
Total in-flight flits = 95517 (0 measured)
latency change    = 0.544382
throughput change = 0.0277923
Average latency for class 0 exceeded 500 cycles. Aborting simulation.
Too many sample periods needed to converge
Simulation unstable, ending ...
Total run time 5.19088
