BEGIN Configuration File: ../../../../booksim2/src/examples/flatflyconfig
// $Id$

// Copyright (c) 2007-2015, Trustees of The Leland Stanford Junior University
// All rights reserved.
//
// Redistribution and use in source and binary forms, with or without
// modification, are permitted provided that the following conditions are met:
//
// Redistributions of source code must retain the above copyright notice, this
// list of conditions and the following disclaimer.
// Redistributions in binary form must reproduce the above copyright notice,
// this list of conditions and the following disclaimer in the documentation
// and/or other materials provided with the distribution.
//
// THIS SOFTWARE IS PROVIDED BY THE COPYRIGHT HOLDERS AND CONTRIBUTORS "AS IS"
// AND ANY EXPRESS OR IMPLIED WARRANTIES, INCLUDING, BUT NOT LIMITED TO, THE
// IMPLIED WARRANTIES OF MERCHANTABILITY AND FITNESS FOR A PARTICULAR PURPOSE
// ARE DISCLAIMED. IN NO EVENT SHALL THE COPYRIGHT OWNER OR CONTRIBUTORS BE
// LIABLE FOR ANY DIRECT, INDIRECT, INCIDENTAL, SPECIAL, EXEMPLARY, OR
// CONSEQUENTIAL DAMAGES (INCLUDING, BUT NOT LIMITED TO, PROCUREMENT OF
// SUBSTITUTE GOODS OR SERVICES; LOSS OF USE, DATA, OR PROFITS; OR BUSINESS
// INTERRUPTION) HOWEVER CAUSED AND ON ANY THEORY OF LIABILITY, WHETHER IN
// CONTRACT, STRICT LIABILITY, OR TORT (INCLUDING NEGLIGENCE OR OTHERWISE)
// ARISING IN ANY WAY OUT OF THE USE OF THIS SOFTWARE, EVEN IF ADVISED OF THE
// POSSIBILITY OF SUCH DAMAGE.

//A flattened butterfly configurate file with many tweaks from the
//default settings. 


// Flow control
// Total number of VCs must match the above assignments
num_vcs     = 2;
vc_buf_size = 128;

wait_for_tail_credit = 0;

//
// Router architectureq
//
vc_allocator = islip; 
sw_allocator = islip;
alloc_iters  = 3;

credit_delay   = 0;
routing_delay  = 1;
vc_alloc_delay = 1;
sw_alloc_delay = 1;
st_final_delay = 1;

input_speedup     = 1;
output_speedup    = 1;
internal_speedup  = 1.6;

//
// Traffic
//

warmup_periods = 3;

sample_period  = 1000;  

sim_count          = 1;

traffic       = uniform;


// Flatfly 
//
// #node = k^(n+1)
//
// x, y, specifies the arrangement of routers in x and y dim
// xr, yr specifiies the arayment of clients in a router
//
topology = flatfly;
subnets = 1;

c  = 16;
k  = 16;
n  = 1;

x  = 16;
y  = 1;
xr = 16;
yr = 1;

use_noc_latency = 0;

//
// Routing
//

routing_function = ran_min;

//1: batch mode, 0: injection mode
use_read_write = 0;

//for injection mode
packet_size = 1;
injection_rate = 0.1;

//for batch mode
read_request_size=1;
write_request_size=1;
read_reply_size=1;
write_reply_size=1;

read_request_begin_vc  = 0;
read_request_end_vc    = 3;
write_reply_begin_vc   = 4;
write_reply_end_vc     = 7;
read_reply_begin_vc    = 4;
read_reply_end_vc      = 7;
write_request_begin_vc = 0;
write_request_end_vc   = 3;

//latency: drains all packet, throughput:no drain?
sim_type = latency;

END Configuration File: ../../../../booksim2/src/examples/flatflyconfig
OVERRIDE Parameter: sim_type=latency
OVERRIDE Parameter: traffic=uniform
OVERRIDE Parameter: injection_rate={0.55}
 Flat Bufferfly 
 k = 16 n = 1 c = 16
 each switch - total radix =  31
 # of switches = 16
 # of channels = 240
 # of nodes ( size of network ) = 256
Class 0:
Packet latency average = 57.3052
	minimum = 5
	maximum = 88
Network latency average = 57.3052
	minimum = 5
	maximum = 88
Slowest packet = 89052
Flit latency average = 57.3052
	minimum = 5
	maximum = 88
Slowest flit = 89052
Fragmentation average = 0
	minimum = 0
	maximum = 0
Injected packet rate average = 0.549508
	minimum = 0.498 (at node 173)
	maximum = 0.588 (at node 170)
Accepted packet rate average = 0.517703
	minimum = 0.45 (at node 110)
	maximum = 0.589 (at node 186)
Injected flit rate average = 0.549508
	minimum = 0.498 (at node 173)
	maximum = 0.588 (at node 170)
Accepted flit rate average= 0.517703
	minimum = 0.45 (at node 110)
	maximum = 0.589 (at node 186)
Injected packet length average = 1
Accepted packet length average = 1
Total in-flight flits = 8142 (0 measured)
latency change    = 1
throughput change = 1
Class 0:
Packet latency average = 57.4132
	minimum = 5
	maximum = 88
Network latency average = 57.4132
	minimum = 5
	maximum = 88
Slowest packet = 89052
Flit latency average = 57.4132
	minimum = 5
	maximum = 88
Slowest flit = 89052
Fragmentation average = 0
	minimum = 0
	maximum = 0
Injected packet rate average = 0.550074
	minimum = 0.519 (at node 203)
	maximum = 0.582 (at node 200)
Accepted packet rate average = 0.534146
	minimum = 0.4955 (at node 95)
	maximum = 0.575 (at node 65)
Injected flit rate average = 0.550074
	minimum = 0.519 (at node 203)
	maximum = 0.582 (at node 200)
Accepted flit rate average= 0.534146
	minimum = 0.4955 (at node 95)
	maximum = 0.575 (at node 65)
Injected packet length average = 1
Accepted packet length average = 1
Total in-flight flits = 8155 (0 measured)
latency change    = 0.00188172
throughput change = 0.0307844
Class 0:
Packet latency average = 57.5643
	minimum = 5
	maximum = 82
Network latency average = 57.5643
	minimum = 5
	maximum = 82
Slowest packet = 352558
Flit latency average = 57.5643
	minimum = 5
	maximum = 82
Slowest flit = 352558
Fragmentation average = 0
	minimum = 0
	maximum = 0
Injected packet rate average = 0.54984
	minimum = 0.504 (at node 252)
	maximum = 0.6 (at node 158)
Accepted packet rate average = 0.549992
	minimum = 0.493 (at node 127)
	maximum = 0.632 (at node 244)
Injected flit rate average = 0.54984
	minimum = 0.504 (at node 252)
	maximum = 0.6 (at node 158)
Accepted flit rate average= 0.549992
	minimum = 0.493 (at node 127)
	maximum = 0.632 (at node 244)
Injected packet length average = 1
Accepted packet length average = 1
Total in-flight flits = 8116 (0 measured)
latency change    = 0.00262573
throughput change = 0.0288108
Warmed up ...Time used is 3000 cycles
Class 0:
Packet latency average = 57.3964
	minimum = 5
	maximum = 80
Network latency average = 57.3964
	minimum = 5
	maximum = 80
Slowest packet = 533760
Flit latency average = 57.578
	minimum = 5
	maximum = 80
Slowest flit = 533760
Fragmentation average = 0
	minimum = 0
	maximum = 0
Injected packet rate average = 0.550344
	minimum = 0.506 (at node 150)
	maximum = 0.591 (at node 8)
Accepted packet rate average = 0.550059
	minimum = 0.489 (at node 193)
	maximum = 0.627 (at node 174)
Injected flit rate average = 0.550344
	minimum = 0.506 (at node 150)
	maximum = 0.591 (at node 8)
Accepted flit rate average= 0.550059
	minimum = 0.489 (at node 193)
	maximum = 0.627 (at node 174)
Injected packet length average = 1
Accepted packet length average = 1
Total in-flight flits = 8189 (8189 measured)
latency change    = 0.00292517
throughput change = 0.000120726
Class 0:
Packet latency average = 57.4611
	minimum = 5
	maximum = 85
Network latency average = 57.4611
	minimum = 5
	maximum = 85
Slowest packet = 562721
Flit latency average = 57.55
	minimum = 5
	maximum = 85
Slowest flit = 562721
Fragmentation average = 0
	minimum = 0
	maximum = 0
Injected packet rate average = 0.5499
	minimum = 0.519 (at node 150)
	maximum = 0.577 (at node 220)
Accepted packet rate average = 0.549979
	minimum = 0.5035 (at node 69)
	maximum = 0.6055 (at node 121)
Injected flit rate average = 0.5499
	minimum = 0.519 (at node 150)
	maximum = 0.577 (at node 220)
Accepted flit rate average= 0.549979
	minimum = 0.5035 (at node 69)
	maximum = 0.6055 (at node 121)
Injected packet length average = 1
Accepted packet length average = 1
Total in-flight flits = 8076 (8076 measured)
latency change    = 0.00112515
throughput change = 0.000145602
Class 0:
Packet latency average = 57.4909
	minimum = 5
	maximum = 86
Network latency average = 57.4909
	minimum = 5
	maximum = 86
Slowest packet = 730346
Flit latency average = 57.5497
	minimum = 5
	maximum = 86
Slowest flit = 730346
Fragmentation average = 0
	minimum = 0
	maximum = 0
Injected packet rate average = 0.549469
	minimum = 0.525333 (at node 139)
	maximum = 0.574333 (at node 215)
Accepted packet rate average = 0.549496
	minimum = 0.507333 (at node 186)
	maximum = 0.59 (at node 121)
Injected flit rate average = 0.549469
	minimum = 0.525333 (at node 139)
	maximum = 0.574333 (at node 215)
Accepted flit rate average= 0.549496
	minimum = 0.507333 (at node 186)
	maximum = 0.59 (at node 121)
Injected packet length average = 1
Accepted packet length average = 1
Total in-flight flits = 8095 (8095 measured)
latency change    = 0.000518451
throughput change = 0.000877935
Draining all recorded packets ...
Draining remaining packets ...
Time taken is 6188 cycles
====== Overall Traffic Statistics ======
====== Traffic class 0 ======
Packet latency average = 57.5506 (1 samples)
	minimum = 5 (1 samples)
	maximum = 86 (1 samples)
Network latency average = 57.5506 (1 samples)
	minimum = 5 (1 samples)
	maximum = 86 (1 samples)
Flit latency average = 57.6057 (1 samples)
	minimum = 5 (1 samples)
	maximum = 86 (1 samples)
Fragmentation average = 0 (1 samples)
	minimum = 0 (1 samples)
	maximum = 0 (1 samples)
Injected packet rate average = 0.549469 (1 samples)
	minimum = 0.525333 (1 samples)
	maximum = 0.574333 (1 samples)
Accepted packet rate average = 0.549496 (1 samples)
	minimum = 0.507333 (1 samples)
	maximum = 0.59 (1 samples)
Injected flit rate average = 0.549469 (1 samples)
	minimum = 0.525333 (1 samples)
	maximum = 0.574333 (1 samples)
Accepted flit rate average = 0.549496 (1 samples)
	minimum = 0.507333 (1 samples)
	maximum = 0.59 (1 samples)
Injected packet size average = 1 (1 samples)
Accepted packet size average = 1 (1 samples)
Hops average = 1.93809 (1 samples)
Total run time 5.30618
