BEGIN Configuration File: ../../../../booksim2/src/examples/flatflyconfig
// $Id$

// Copyright (c) 2007-2015, Trustees of The Leland Stanford Junior University
// All rights reserved.
//
// Redistribution and use in source and binary forms, with or without
// modification, are permitted provided that the following conditions are met:
//
// Redistributions of source code must retain the above copyright notice, this
// list of conditions and the following disclaimer.
// Redistributions in binary form must reproduce the above copyright notice,
// this list of conditions and the following disclaimer in the documentation
// and/or other materials provided with the distribution.
//
// THIS SOFTWARE IS PROVIDED BY THE COPYRIGHT HOLDERS AND CONTRIBUTORS "AS IS"
// AND ANY EXPRESS OR IMPLIED WARRANTIES, INCLUDING, BUT NOT LIMITED TO, THE
// IMPLIED WARRANTIES OF MERCHANTABILITY AND FITNESS FOR A PARTICULAR PURPOSE
// ARE DISCLAIMED. IN NO EVENT SHALL THE COPYRIGHT OWNER OR CONTRIBUTORS BE
// LIABLE FOR ANY DIRECT, INDIRECT, INCIDENTAL, SPECIAL, EXEMPLARY, OR
// CONSEQUENTIAL DAMAGES (INCLUDING, BUT NOT LIMITED TO, PROCUREMENT OF
// SUBSTITUTE GOODS OR SERVICES; LOSS OF USE, DATA, OR PROFITS; OR BUSINESS
// INTERRUPTION) HOWEVER CAUSED AND ON ANY THEORY OF LIABILITY, WHETHER IN
// CONTRACT, STRICT LIABILITY, OR TORT (INCLUDING NEGLIGENCE OR OTHERWISE)
// ARISING IN ANY WAY OUT OF THE USE OF THIS SOFTWARE, EVEN IF ADVISED OF THE
// POSSIBILITY OF SUCH DAMAGE.

//A flattened butterfly configurate file with many tweaks from the
//default settings. 


// Flow control
// Total number of VCs must match the above assignments
num_vcs     = 2;
vc_buf_size = 128;

wait_for_tail_credit = 0;

//
// Router architectureq
//
vc_allocator = islip; 
sw_allocator = islip;
alloc_iters  = 3;

credit_delay   = 0;
routing_delay  = 1;
vc_alloc_delay = 1;
sw_alloc_delay = 1;
st_final_delay = 1;

input_speedup     = 1;
output_speedup    = 1;
internal_speedup  = 1.6;

//
// Traffic
//

warmup_periods = 3;

sample_period  = 1000;  

sim_count          = 1;

traffic       = uniform;


// Flatfly 
//
// #node = k^(n+1)
//
// x, y, specifies the arrangement of routers in x and y dim
// xr, yr specifiies the arayment of clients in a router
//
topology = flatfly;
subnets = 1;

c  = 16;
k  = 16;
n  = 1;

x  = 16;
y  = 1;
xr = 16;
yr = 1;

use_noc_latency = 0;

//
// Routing
//

routing_function = ran_min;

//1: batch mode, 0: injection mode
use_read_write = 0;

//for injection mode
packet_size = 1;
injection_rate = 0.1;

//for batch mode
read_request_size=1;
write_request_size=1;
read_reply_size=1;
write_reply_size=1;

read_request_begin_vc  = 0;
read_request_end_vc    = 3;
write_reply_begin_vc   = 4;
write_reply_end_vc     = 7;
read_reply_begin_vc    = 4;
read_reply_end_vc      = 7;
write_request_begin_vc = 0;
write_request_end_vc   = 3;

//latency: drains all packet, throughput:no drain?
sim_type = latency;

END Configuration File: ../../../../booksim2/src/examples/flatflyconfig
OVERRIDE Parameter: sim_type=latency
OVERRIDE Parameter: traffic=uniform
OVERRIDE Parameter: injection_rate={0.275}
 Flat Bufferfly 
 k = 16 n = 1 c = 16
 each switch - total radix =  31
 # of switches = 16
 # of channels = 240
 # of nodes ( size of network ) = 256
Class 0:
Packet latency average = 55.7949
	minimum = 5
	maximum = 66
Network latency average = 55.7949
	minimum = 5
	maximum = 66
Slowest packet = 34850
Flit latency average = 55.7949
	minimum = 5
	maximum = 66
Slowest flit = 34850
Fragmentation average = 0
	minimum = 0
	maximum = 0
Injected packet rate average = 0.27425
	minimum = 0.238 (at node 104)
	maximum = 0.314 (at node 141)
Accepted packet rate average = 0.258918
	minimum = 0.22 (at node 108)
	maximum = 0.313 (at node 65)
Injected flit rate average = 0.27425
	minimum = 0.238 (at node 104)
	maximum = 0.314 (at node 141)
Accepted flit rate average= 0.258918
	minimum = 0.22 (at node 108)
	maximum = 0.313 (at node 65)
Injected packet length average = 1
Accepted packet length average = 1
Total in-flight flits = 3925 (0 measured)
latency change    = 1
throughput change = 1
Class 0:
Packet latency average = 55.8614
	minimum = 5
	maximum = 67
Network latency average = 55.8614
	minimum = 5
	maximum = 67
Slowest packet = 74083
Flit latency average = 55.8614
	minimum = 5
	maximum = 67
Slowest flit = 74083
Fragmentation average = 0
	minimum = 0
	maximum = 0
Injected packet rate average = 0.274557
	minimum = 0.2525 (at node 175)
	maximum = 0.3025 (at node 189)
Accepted packet rate average = 0.266891
	minimum = 0.2345 (at node 110)
	maximum = 0.3035 (at node 186)
Injected flit rate average = 0.274557
	minimum = 0.2525 (at node 175)
	maximum = 0.3025 (at node 189)
Accepted flit rate average= 0.266891
	minimum = 0.2345 (at node 110)
	maximum = 0.3035 (at node 186)
Injected packet length average = 1
Accepted packet length average = 1
Total in-flight flits = 3925 (0 measured)
latency change    = 0.00119061
throughput change = 0.0298724
Class 0:
Packet latency average = 55.938
	minimum = 5
	maximum = 67
Network latency average = 55.938
	minimum = 5
	maximum = 67
Slowest packet = 160210
Flit latency average = 55.938
	minimum = 5
	maximum = 67
Slowest flit = 160210
Fragmentation average = 0
	minimum = 0
	maximum = 0
Injected packet rate average = 0.274867
	minimum = 0.239 (at node 252)
	maximum = 0.312 (at node 45)
Accepted packet rate average = 0.274266
	minimum = 0.235 (at node 33)
	maximum = 0.324 (at node 181)
Injected flit rate average = 0.274867
	minimum = 0.239 (at node 252)
	maximum = 0.312 (at node 45)
Accepted flit rate average= 0.274266
	minimum = 0.235 (at node 33)
	maximum = 0.324 (at node 181)
Injected packet length average = 1
Accepted packet length average = 1
Total in-flight flits = 4079 (0 measured)
latency change    = 0.00137013
throughput change = 0.02689
Warmed up ...Time used is 3000 cycles
Class 0:
Packet latency average = 55.7364
	minimum = 5
	maximum = 66
Network latency average = 55.7364
	minimum = 5
	maximum = 66
Slowest packet = 217413
Flit latency average = 55.9219
	minimum = 5
	maximum = 66
Slowest flit = 217413
Fragmentation average = 0
	minimum = 0
	maximum = 0
Injected packet rate average = 0.274836
	minimum = 0.232 (at node 240)
	maximum = 0.314 (at node 36)
Accepted packet rate average = 0.275324
	minimum = 0.233 (at node 114)
	maximum = 0.311 (at node 120)
Injected flit rate average = 0.274836
	minimum = 0.232 (at node 240)
	maximum = 0.314 (at node 36)
Accepted flit rate average= 0.275324
	minimum = 0.233 (at node 114)
	maximum = 0.311 (at node 120)
Injected packet length average = 1
Accepted packet length average = 1
Total in-flight flits = 3954 (3954 measured)
latency change    = 0.00361648
throughput change = 0.0038449
Class 0:
Packet latency average = 55.8165
	minimum = 5
	maximum = 67
Network latency average = 55.8165
	minimum = 5
	maximum = 67
Slowest packet = 312233
Flit latency average = 55.907
	minimum = 5
	maximum = 67
Slowest flit = 312233
Fragmentation average = 0
	minimum = 0
	maximum = 0
Injected packet rate average = 0.274555
	minimum = 0.244 (at node 42)
	maximum = 0.3035 (at node 204)
Accepted packet rate average = 0.274945
	minimum = 0.229 (at node 21)
	maximum = 0.305 (at node 241)
Injected flit rate average = 0.274555
	minimum = 0.244 (at node 42)
	maximum = 0.3035 (at node 204)
Accepted flit rate average= 0.274945
	minimum = 0.229 (at node 21)
	maximum = 0.305 (at node 241)
Injected packet length average = 1
Accepted packet length average = 1
Total in-flight flits = 3879 (3879 measured)
latency change    = 0.00143372
throughput change = 0.00137811
Class 0:
Packet latency average = 55.8486
	minimum = 5
	maximum = 67
Network latency average = 55.8486
	minimum = 5
	maximum = 67
Slowest packet = 312233
Flit latency average = 55.9083
	minimum = 5
	maximum = 67
Slowest flit = 312233
Fragmentation average = 0
	minimum = 0
	maximum = 0
Injected packet rate average = 0.274793
	minimum = 0.248 (at node 42)
	maximum = 0.303333 (at node 204)
Accepted packet rate average = 0.274883
	minimum = 0.252667 (at node 127)
	maximum = 0.305 (at node 244)
Injected flit rate average = 0.274793
	minimum = 0.248 (at node 42)
	maximum = 0.303333 (at node 204)
Accepted flit rate average= 0.274883
	minimum = 0.252667 (at node 127)
	maximum = 0.305 (at node 244)
Injected packet length average = 1
Accepted packet length average = 1
Total in-flight flits = 4010 (4010 measured)
latency change    = 0.000574535
throughput change = 0.00022737
Draining all recorded packets ...
Draining remaining packets ...
Time taken is 6171 cycles
====== Overall Traffic Statistics ======
====== Traffic class 0 ======
Packet latency average = 55.9054 (1 samples)
	minimum = 5 (1 samples)
	maximum = 67 (1 samples)
Network latency average = 55.9054 (1 samples)
	minimum = 5 (1 samples)
	maximum = 67 (1 samples)
Flit latency average = 55.9564 (1 samples)
	minimum = 5 (1 samples)
	maximum = 67 (1 samples)
Fragmentation average = 0 (1 samples)
	minimum = 0 (1 samples)
	maximum = 0 (1 samples)
Injected packet rate average = 0.274793 (1 samples)
	minimum = 0.248 (1 samples)
	maximum = 0.303333 (1 samples)
Accepted packet rate average = 0.274883 (1 samples)
	minimum = 0.252667 (1 samples)
	maximum = 0.305 (1 samples)
Injected flit rate average = 0.274793 (1 samples)
	minimum = 0.248 (1 samples)
	maximum = 0.303333 (1 samples)
Accepted flit rate average = 0.274883 (1 samples)
	minimum = 0.252667 (1 samples)
	maximum = 0.305 (1 samples)
Injected packet size average = 1 (1 samples)
Accepted packet size average = 1 (1 samples)
Hops average = 1.93731 (1 samples)
Total run time 2.71392
