BEGIN Configuration File: ../../../../booksim2/src/examples/flatflyconfig
// $Id$

// Copyright (c) 2007-2015, Trustees of The Leland Stanford Junior University
// All rights reserved.
//
// Redistribution and use in source and binary forms, with or without
// modification, are permitted provided that the following conditions are met:
//
// Redistributions of source code must retain the above copyright notice, this
// list of conditions and the following disclaimer.
// Redistributions in binary form must reproduce the above copyright notice,
// this list of conditions and the following disclaimer in the documentation
// and/or other materials provided with the distribution.
//
// THIS SOFTWARE IS PROVIDED BY THE COPYRIGHT HOLDERS AND CONTRIBUTORS "AS IS"
// AND ANY EXPRESS OR IMPLIED WARRANTIES, INCLUDING, BUT NOT LIMITED TO, THE
// IMPLIED WARRANTIES OF MERCHANTABILITY AND FITNESS FOR A PARTICULAR PURPOSE
// ARE DISCLAIMED. IN NO EVENT SHALL THE COPYRIGHT OWNER OR CONTRIBUTORS BE
// LIABLE FOR ANY DIRECT, INDIRECT, INCIDENTAL, SPECIAL, EXEMPLARY, OR
// CONSEQUENTIAL DAMAGES (INCLUDING, BUT NOT LIMITED TO, PROCUREMENT OF
// SUBSTITUTE GOODS OR SERVICES; LOSS OF USE, DATA, OR PROFITS; OR BUSINESS
// INTERRUPTION) HOWEVER CAUSED AND ON ANY THEORY OF LIABILITY, WHETHER IN
// CONTRACT, STRICT LIABILITY, OR TORT (INCLUDING NEGLIGENCE OR OTHERWISE)
// ARISING IN ANY WAY OUT OF THE USE OF THIS SOFTWARE, EVEN IF ADVISED OF THE
// POSSIBILITY OF SUCH DAMAGE.

//A flattened butterfly configurate file with many tweaks from the
//default settings. 


// Flow control
// Total number of VCs must match the above assignments
num_vcs     = 2;
vc_buf_size = 128;

wait_for_tail_credit = 0;

//
// Router architectureq
//
vc_allocator = islip; 
sw_allocator = islip;
alloc_iters  = 3;

credit_delay   = 0;
routing_delay  = 1;
vc_alloc_delay = 1;
sw_alloc_delay = 1;
st_final_delay = 1;

input_speedup     = 1;
output_speedup    = 1;
internal_speedup  = 1.6;

//
// Traffic
//

warmup_periods = 3;

sample_period  = 1000;  

sim_count          = 1;

traffic       = uniform;


// Flatfly 
//
// #node = k^(n+1)
//
// x, y, specifies the arrangement of routers in x and y dim
// xr, yr specifiies the arayment of clients in a router
//
topology = flatfly;
subnets = 1;

c  = 16;
k  = 16;
n  = 1;

x  = 16;
y  = 1;
xr = 16;
yr = 1;

use_noc_latency = 0;

//
// Routing
//

routing_function = ran_min;

//1: batch mode, 0: injection mode
use_read_write = 0;

//for injection mode
packet_size = 1;
injection_rate = 0.1;

//for batch mode
read_request_size=1;
write_request_size=1;
read_reply_size=1;
write_reply_size=1;

read_request_begin_vc  = 0;
read_request_end_vc    = 3;
write_reply_begin_vc   = 4;
write_reply_end_vc     = 7;
read_reply_begin_vc    = 4;
read_reply_end_vc      = 7;
write_request_begin_vc = 0;
write_request_end_vc   = 3;

//latency: drains all packet, throughput:no drain?
sim_type = latency;

END Configuration File: ../../../../booksim2/src/examples/flatflyconfig
OVERRIDE Parameter: sim_type=latency
OVERRIDE Parameter: traffic=uniform
OVERRIDE Parameter: injection_rate={0.7}
 Flat Bufferfly 
 k = 16 n = 1 c = 16
 each switch - total radix =  31
 # of switches = 16
 # of channels = 240
 # of nodes ( size of network ) = 256
Class 0:
Packet latency average = 64.0048
	minimum = 5
	maximum = 138
Network latency average = 64.0048
	minimum = 5
	maximum = 138
Slowest packet = 134502
Flit latency average = 64.0048
	minimum = 5
	maximum = 138
Slowest flit = 134502
Fragmentation average = 0
	minimum = 0
	maximum = 0
Injected packet rate average = 0.699313
	minimum = 0.652 (at node 172)
	maximum = 0.736 (at node 26)
Accepted packet rate average = 0.652516
	minimum = 0.585 (at node 95)
	maximum = 0.722 (at node 186)
Injected flit rate average = 0.699313
	minimum = 0.652 (at node 172)
	maximum = 0.736 (at node 26)
Accepted flit rate average= 0.652516
	minimum = 0.585 (at node 95)
	maximum = 0.722 (at node 186)
Injected packet length average = 1
Accepted packet length average = 1
Total in-flight flits = 11980 (0 measured)
latency change    = 1
throughput change = 1
Class 0:
Packet latency average = 66.0219
	minimum = 5
	maximum = 201
Network latency average = 66.0219
	minimum = 5
	maximum = 201
Slowest packet = 309758
Flit latency average = 66.0219
	minimum = 5
	maximum = 201
Slowest flit = 309758
Fragmentation average = 0
	minimum = 0
	maximum = 0
Injected packet rate average = 0.69924
	minimum = 0.667 (at node 172)
	maximum = 0.729 (at node 215)
Accepted packet rate average = 0.675104
	minimum = 0.617 (at node 21)
	maximum = 0.7235 (at node 65)
Injected flit rate average = 0.69924
	minimum = 0.667 (at node 172)
	maximum = 0.729 (at node 215)
Accepted flit rate average= 0.675104
	minimum = 0.617 (at node 21)
	maximum = 0.7235 (at node 65)
Injected packet length average = 1
Accepted packet length average = 1
Total in-flight flits = 12358 (0 measured)
latency change    = 0.0305513
throughput change = 0.0334584
Class 0:
Packet latency average = 69.1768
	minimum = 5
	maximum = 202
Network latency average = 69.1768
	minimum = 5
	maximum = 202
Slowest packet = 367498
Flit latency average = 69.1768
	minimum = 5
	maximum = 202
Slowest flit = 367498
Fragmentation average = 0
	minimum = 0
	maximum = 0
Injected packet rate average = 0.699387
	minimum = 0.657 (at node 146)
	maximum = 0.75 (at node 149)
Accepted packet rate average = 0.698855
	minimum = 0.63 (at node 20)
	maximum = 0.789 (at node 174)
Injected flit rate average = 0.699387
	minimum = 0.657 (at node 146)
	maximum = 0.75 (at node 149)
Accepted flit rate average= 0.698855
	minimum = 0.63 (at node 20)
	maximum = 0.789 (at node 174)
Injected packet length average = 1
Accepted packet length average = 1
Total in-flight flits = 12494 (0 measured)
latency change    = 0.0456061
throughput change = 0.0339869
Warmed up ...Time used is 3000 cycles
Class 0:
Packet latency average = 69.4712
	minimum = 5
	maximum = 204
Network latency average = 69.4712
	minimum = 5
	maximum = 204
Slowest packet = 550485
Flit latency average = 70.031
	minimum = 5
	maximum = 204
Slowest flit = 550485
Fragmentation average = 0
	minimum = 0
	maximum = 0
Injected packet rate average = 0.700887
	minimum = 0.654 (at node 153)
	maximum = 0.739 (at node 99)
Accepted packet rate average = 0.699871
	minimum = 0.629 (at node 122)
	maximum = 0.786 (at node 255)
Injected flit rate average = 0.700887
	minimum = 0.654 (at node 153)
	maximum = 0.739 (at node 99)
Accepted flit rate average= 0.699871
	minimum = 0.629 (at node 122)
	maximum = 0.786 (at node 255)
Injected packet length average = 1
Accepted packet length average = 1
Total in-flight flits = 12754 (12754 measured)
latency change    = 0.0042375
throughput change = 0.00145116
Class 0:
Packet latency average = 70.2813
	minimum = 5
	maximum = 204
Network latency average = 70.2813
	minimum = 5
	maximum = 204
Slowest packet = 550485
Flit latency average = 70.5328
	minimum = 5
	maximum = 204
Slowest flit = 550485
Fragmentation average = 0
	minimum = 0
	maximum = 0
Injected packet rate average = 0.700346
	minimum = 0.6715 (at node 92)
	maximum = 0.7305 (at node 86)
Accepted packet rate average = 0.700291
	minimum = 0.645 (at node 186)
	maximum = 0.7565 (at node 225)
Injected flit rate average = 0.700346
	minimum = 0.6715 (at node 92)
	maximum = 0.7305 (at node 86)
Accepted flit rate average= 0.700291
	minimum = 0.645 (at node 186)
	maximum = 0.7565 (at node 225)
Injected packet length average = 1
Accepted packet length average = 1
Total in-flight flits = 12522 (12522 measured)
latency change    = 0.0115266
throughput change = 0.000599639
Class 0:
Packet latency average = 70.3381
	minimum = 5
	maximum = 204
Network latency average = 70.3381
	minimum = 5
	maximum = 204
Slowest packet = 550485
Flit latency average = 70.5046
	minimum = 5
	maximum = 204
Slowest flit = 550485
Fragmentation average = 0
	minimum = 0
	maximum = 0
Injected packet rate average = 0.700161
	minimum = 0.675 (at node 243)
	maximum = 0.725333 (at node 142)
Accepted packet rate average = 0.699921
	minimum = 0.657333 (at node 237)
	maximum = 0.745333 (at node 79)
Injected flit rate average = 0.700161
	minimum = 0.675 (at node 243)
	maximum = 0.725333 (at node 142)
Accepted flit rate average= 0.699921
	minimum = 0.657333 (at node 237)
	maximum = 0.745333 (at node 79)
Injected packet length average = 1
Accepted packet length average = 1
Total in-flight flits = 12679 (12679 measured)
latency change    = 0.000808038
throughput change = 0.000529264
Draining all recorded packets ...
Draining remaining packets ...
Time taken is 6381 cycles
====== Overall Traffic Statistics ======
====== Traffic class 0 ======
Packet latency average = 70.5493 (1 samples)
	minimum = 5 (1 samples)
	maximum = 204 (1 samples)
Network latency average = 70.5493 (1 samples)
	minimum = 5 (1 samples)
	maximum = 204 (1 samples)
Flit latency average = 70.6853 (1 samples)
	minimum = 5 (1 samples)
	maximum = 204 (1 samples)
Fragmentation average = 0 (1 samples)
	minimum = 0 (1 samples)
	maximum = 0 (1 samples)
Injected packet rate average = 0.700161 (1 samples)
	minimum = 0.675 (1 samples)
	maximum = 0.725333 (1 samples)
Accepted packet rate average = 0.699921 (1 samples)
	minimum = 0.657333 (1 samples)
	maximum = 0.745333 (1 samples)
Injected flit rate average = 0.700161 (1 samples)
	minimum = 0.675 (1 samples)
	maximum = 0.725333 (1 samples)
Accepted flit rate average = 0.699921 (1 samples)
	minimum = 0.657333 (1 samples)
	maximum = 0.745333 (1 samples)
Injected packet size average = 1 (1 samples)
Accepted packet size average = 1 (1 samples)
Hops average = 1.93754 (1 samples)
Total run time 7.07919
