BEGIN Configuration File: ../../../../booksim2/src/examples/flatflyconfig
// $Id$

// Copyright (c) 2007-2015, Trustees of The Leland Stanford Junior University
// All rights reserved.
//
// Redistribution and use in source and binary forms, with or without
// modification, are permitted provided that the following conditions are met:
//
// Redistributions of source code must retain the above copyright notice, this
// list of conditions and the following disclaimer.
// Redistributions in binary form must reproduce the above copyright notice,
// this list of conditions and the following disclaimer in the documentation
// and/or other materials provided with the distribution.
//
// THIS SOFTWARE IS PROVIDED BY THE COPYRIGHT HOLDERS AND CONTRIBUTORS "AS IS"
// AND ANY EXPRESS OR IMPLIED WARRANTIES, INCLUDING, BUT NOT LIMITED TO, THE
// IMPLIED WARRANTIES OF MERCHANTABILITY AND FITNESS FOR A PARTICULAR PURPOSE
// ARE DISCLAIMED. IN NO EVENT SHALL THE COPYRIGHT OWNER OR CONTRIBUTORS BE
// LIABLE FOR ANY DIRECT, INDIRECT, INCIDENTAL, SPECIAL, EXEMPLARY, OR
// CONSEQUENTIAL DAMAGES (INCLUDING, BUT NOT LIMITED TO, PROCUREMENT OF
// SUBSTITUTE GOODS OR SERVICES; LOSS OF USE, DATA, OR PROFITS; OR BUSINESS
// INTERRUPTION) HOWEVER CAUSED AND ON ANY THEORY OF LIABILITY, WHETHER IN
// CONTRACT, STRICT LIABILITY, OR TORT (INCLUDING NEGLIGENCE OR OTHERWISE)
// ARISING IN ANY WAY OUT OF THE USE OF THIS SOFTWARE, EVEN IF ADVISED OF THE
// POSSIBILITY OF SUCH DAMAGE.

//A flattened butterfly configurate file with many tweaks from the
//default settings. 


// Flow control
// Total number of VCs must match the above assignments
num_vcs     = 2;
vc_buf_size = 128;

wait_for_tail_credit = 0;

//
// Router architectureq
//
vc_allocator = islip; 
sw_allocator = islip;
alloc_iters  = 3;

credit_delay   = 0;
routing_delay  = 1;
vc_alloc_delay = 1;
sw_alloc_delay = 1;
st_final_delay = 1;

input_speedup     = 1;
output_speedup    = 1;
internal_speedup  = 1.6;

//
// Traffic
//

warmup_periods = 3;

sample_period  = 1000;  

sim_count          = 1;

traffic       = uniform;


// Flatfly 
//
// #node = k^(n+1)
//
// x, y, specifies the arrangement of routers in x and y dim
// xr, yr specifiies the arayment of clients in a router
//
topology = flatfly;
subnets = 1;

c  = 16;
k  = 16;
n  = 1;

x  = 16;
y  = 1;
xr = 16;
yr = 1;

use_noc_latency = 0;

//
// Routing
//

routing_function = ran_min;

//1: batch mode, 0: injection mode
use_read_write = 0;

//for injection mode
packet_size = 1;
injection_rate = 0.1;

//for batch mode
read_request_size=1;
write_request_size=1;
read_reply_size=1;
write_reply_size=1;

read_request_begin_vc  = 0;
read_request_end_vc    = 3;
write_reply_begin_vc   = 4;
write_reply_end_vc     = 7;
read_reply_begin_vc    = 4;
read_reply_end_vc      = 7;
write_request_begin_vc = 0;
write_request_end_vc   = 3;

//latency: drains all packet, throughput:no drain?
sim_type = latency;

END Configuration File: ../../../../booksim2/src/examples/flatflyconfig
OVERRIDE Parameter: sim_type=latency
OVERRIDE Parameter: traffic=uniform
OVERRIDE Parameter: injection_rate={0.375}
 Flat Bufferfly 
 k = 16 n = 1 c = 16
 each switch - total radix =  31
 # of switches = 16
 # of channels = 240
 # of nodes ( size of network ) = 256
Class 0:
Packet latency average = 56.1263
	minimum = 5
	maximum = 70
Network latency average = 56.1263
	minimum = 5
	maximum = 70
Slowest packet = 74879
Flit latency average = 56.1263
	minimum = 5
	maximum = 70
Slowest flit = 74879
Fragmentation average = 0
	minimum = 0
	maximum = 0
Injected packet rate average = 0.37409
	minimum = 0.335 (at node 203)
	maximum = 0.412 (at node 26)
Accepted packet rate average = 0.353063
	minimum = 0.299 (at node 100)
	maximum = 0.405 (at node 248)
Injected flit rate average = 0.37409
	minimum = 0.335 (at node 203)
	maximum = 0.412 (at node 26)
Accepted flit rate average= 0.353063
	minimum = 0.299 (at node 100)
	maximum = 0.405 (at node 248)
Injected packet length average = 1
Accepted packet length average = 1
Total in-flight flits = 5383 (0 measured)
latency change    = 1
throughput change = 1
Class 0:
Packet latency average = 56.177
	minimum = 5
	maximum = 70
Network latency average = 56.177
	minimum = 5
	maximum = 70
Slowest packet = 74879
Flit latency average = 56.177
	minimum = 5
	maximum = 70
Slowest flit = 74879
Fragmentation average = 0
	minimum = 0
	maximum = 0
Injected packet rate average = 0.374561
	minimum = 0.352 (at node 50)
	maximum = 0.4005 (at node 189)
Accepted packet rate average = 0.363885
	minimum = 0.33 (at node 110)
	maximum = 0.3975 (at node 186)
Injected flit rate average = 0.374561
	minimum = 0.352 (at node 50)
	maximum = 0.4005 (at node 189)
Accepted flit rate average= 0.363885
	minimum = 0.33 (at node 110)
	maximum = 0.3975 (at node 186)
Injected packet length average = 1
Accepted packet length average = 1
Total in-flight flits = 5466 (0 measured)
latency change    = 0.000900979
throughput change = 0.0297409
Class 0:
Packet latency average = 56.244
	minimum = 5
	maximum = 71
Network latency average = 56.244
	minimum = 5
	maximum = 71
Slowest packet = 211713
Flit latency average = 56.244
	minimum = 5
	maximum = 71
Slowest flit = 211713
Fragmentation average = 0
	minimum = 0
	maximum = 0
Injected packet rate average = 0.37452
	minimum = 0.334 (at node 252)
	maximum = 0.41 (at node 45)
Accepted packet rate average = 0.374336
	minimum = 0.316 (at node 114)
	maximum = 0.424 (at node 121)
Injected flit rate average = 0.37452
	minimum = 0.334 (at node 252)
	maximum = 0.41 (at node 45)
Accepted flit rate average= 0.374336
	minimum = 0.316 (at node 114)
	maximum = 0.424 (at node 121)
Injected packet length average = 1
Accepted packet length average = 1
Total in-flight flits = 5513 (0 measured)
latency change    = 0.00119104
throughput change = 0.0279192
Warmed up ...Time used is 3000 cycles
Class 0:
Packet latency average = 56.0101
	minimum = 5
	maximum = 69
Network latency average = 56.0101
	minimum = 5
	maximum = 69
Slowest packet = 337026
Flit latency average = 56.197
	minimum = 5
	maximum = 69
Slowest flit = 337026
Fragmentation average = 0
	minimum = 0
	maximum = 0
Injected packet rate average = 0.374418
	minimum = 0.334 (at node 150)
	maximum = 0.415 (at node 61)
Accepted packet rate average = 0.37493
	minimum = 0.322 (at node 21)
	maximum = 0.433 (at node 244)
Injected flit rate average = 0.374418
	minimum = 0.334 (at node 150)
	maximum = 0.415 (at node 61)
Accepted flit rate average= 0.37493
	minimum = 0.322 (at node 21)
	maximum = 0.433 (at node 244)
Injected packet length average = 1
Accepted packet length average = 1
Total in-flight flits = 5382 (5382 measured)
latency change    = 0.00417494
throughput change = 0.00158363
Class 0:
Packet latency average = 56.1266
	minimum = 5
	maximum = 70
Network latency average = 56.1266
	minimum = 5
	maximum = 70
Slowest packet = 461458
Flit latency average = 56.2168
	minimum = 5
	maximum = 70
Slowest flit = 461458
Fragmentation average = 0
	minimum = 0
	maximum = 0
Injected packet rate average = 0.374379
	minimum = 0.3385 (at node 150)
	maximum = 0.405 (at node 6)
Accepted packet rate average = 0.374512
	minimum = 0.3375 (at node 62)
	maximum = 0.42 (at node 244)
Injected flit rate average = 0.374379
	minimum = 0.3385 (at node 150)
	maximum = 0.405 (at node 6)
Accepted flit rate average= 0.374512
	minimum = 0.3375 (at node 62)
	maximum = 0.42 (at node 244)
Injected packet length average = 1
Accepted packet length average = 1
Total in-flight flits = 5445 (5445 measured)
latency change    = 0.00207469
throughput change = 0.00111604
Class 0:
Packet latency average = 56.1876
	minimum = 5
	maximum = 71
Network latency average = 56.1876
	minimum = 5
	maximum = 71
Slowest packet = 487290
Flit latency average = 56.2466
	minimum = 5
	maximum = 71
Slowest flit = 487290
Fragmentation average = 0
	minimum = 0
	maximum = 0
Injected packet rate average = 0.374382
	minimum = 0.346 (at node 150)
	maximum = 0.401 (at node 204)
Accepted packet rate average = 0.374479
	minimum = 0.347 (at node 246)
	maximum = 0.408667 (at node 174)
Injected flit rate average = 0.374382
	minimum = 0.346 (at node 150)
	maximum = 0.401 (at node 204)
Accepted flit rate average= 0.374479
	minimum = 0.347 (at node 246)
	maximum = 0.408667 (at node 174)
Injected packet length average = 1
Accepted packet length average = 1
Total in-flight flits = 5438 (5438 measured)
latency change    = 0.00108685
throughput change = 8.69263e-05
Draining all recorded packets ...
Draining remaining packets ...
Time taken is 6174 cycles
====== Overall Traffic Statistics ======
====== Traffic class 0 ======
Packet latency average = 56.2428 (1 samples)
	minimum = 5 (1 samples)
	maximum = 71 (1 samples)
Network latency average = 56.2428 (1 samples)
	minimum = 5 (1 samples)
	maximum = 71 (1 samples)
Flit latency average = 56.303 (1 samples)
	minimum = 5 (1 samples)
	maximum = 71 (1 samples)
Fragmentation average = 0 (1 samples)
	minimum = 0 (1 samples)
	maximum = 0 (1 samples)
Injected packet rate average = 0.374382 (1 samples)
	minimum = 0.346 (1 samples)
	maximum = 0.401 (1 samples)
Accepted packet rate average = 0.374479 (1 samples)
	minimum = 0.347 (1 samples)
	maximum = 0.408667 (1 samples)
Injected flit rate average = 0.374382 (1 samples)
	minimum = 0.346 (1 samples)
	maximum = 0.401 (1 samples)
Accepted flit rate average = 0.374479 (1 samples)
	minimum = 0.347 (1 samples)
	maximum = 0.408667 (1 samples)
Injected packet size average = 1 (1 samples)
Accepted packet size average = 1 (1 samples)
Hops average = 1.93719 (1 samples)
Total run time 3.61875
