BEGIN Configuration File: ../../../../booksim2/src/examples/flatflyconfig
// $Id$

// Copyright (c) 2007-2015, Trustees of The Leland Stanford Junior University
// All rights reserved.
//
// Redistribution and use in source and binary forms, with or without
// modification, are permitted provided that the following conditions are met:
//
// Redistributions of source code must retain the above copyright notice, this
// list of conditions and the following disclaimer.
// Redistributions in binary form must reproduce the above copyright notice,
// this list of conditions and the following disclaimer in the documentation
// and/or other materials provided with the distribution.
//
// THIS SOFTWARE IS PROVIDED BY THE COPYRIGHT HOLDERS AND CONTRIBUTORS "AS IS"
// AND ANY EXPRESS OR IMPLIED WARRANTIES, INCLUDING, BUT NOT LIMITED TO, THE
// IMPLIED WARRANTIES OF MERCHANTABILITY AND FITNESS FOR A PARTICULAR PURPOSE
// ARE DISCLAIMED. IN NO EVENT SHALL THE COPYRIGHT OWNER OR CONTRIBUTORS BE
// LIABLE FOR ANY DIRECT, INDIRECT, INCIDENTAL, SPECIAL, EXEMPLARY, OR
// CONSEQUENTIAL DAMAGES (INCLUDING, BUT NOT LIMITED TO, PROCUREMENT OF
// SUBSTITUTE GOODS OR SERVICES; LOSS OF USE, DATA, OR PROFITS; OR BUSINESS
// INTERRUPTION) HOWEVER CAUSED AND ON ANY THEORY OF LIABILITY, WHETHER IN
// CONTRACT, STRICT LIABILITY, OR TORT (INCLUDING NEGLIGENCE OR OTHERWISE)
// ARISING IN ANY WAY OUT OF THE USE OF THIS SOFTWARE, EVEN IF ADVISED OF THE
// POSSIBILITY OF SUCH DAMAGE.

//A flattened butterfly configurate file with many tweaks from the
//default settings. 


// Flow control
// Total number of VCs must match the above assignments
num_vcs     = 2;
vc_buf_size = 128;

wait_for_tail_credit = 0;

//
// Router architectureq
//
vc_allocator = islip; 
sw_allocator = islip;
alloc_iters  = 3;

credit_delay   = 0;
routing_delay  = 1;
vc_alloc_delay = 1;
sw_alloc_delay = 1;
st_final_delay = 1;

input_speedup     = 1;
output_speedup    = 1;
internal_speedup  = 1.6;

//
// Traffic
//

warmup_periods = 3;

sample_period  = 1000;  

sim_count          = 1;

traffic       = uniform;


// Flatfly 
//
// #node = k^(n+1)
//
// x, y, specifies the arrangement of routers in x and y dim
// xr, yr specifiies the arayment of clients in a router
//
topology = flatfly;
subnets = 1;

c  = 16;
k  = 16;
n  = 1;

x  = 16;
y  = 1;
xr = 16;
yr = 1;

use_noc_latency = 0;

//
// Routing
//

routing_function = ran_min;

//1: batch mode, 0: injection mode
use_read_write = 0;

//for injection mode
packet_size = 1;
injection_rate = 0.1;

//for batch mode
read_request_size=1;
write_request_size=1;
read_reply_size=1;
write_reply_size=1;

read_request_begin_vc  = 0;
read_request_end_vc    = 3;
write_reply_begin_vc   = 4;
write_reply_end_vc     = 7;
read_reply_begin_vc    = 4;
read_reply_end_vc      = 7;
write_request_begin_vc = 0;
write_request_end_vc   = 3;

//latency: drains all packet, throughput:no drain?
sim_type = latency;

END Configuration File: ../../../../booksim2/src/examples/flatflyconfig
OVERRIDE Parameter: sim_type=latency
OVERRIDE Parameter: traffic=uniform
OVERRIDE Parameter: injection_rate={0.5}
 Flat Bufferfly 
 k = 16 n = 1 c = 16
 each switch - total radix =  31
 # of switches = 16
 # of channels = 240
 # of nodes ( size of network ) = 256
Class 0:
Packet latency average = 56.8119
	minimum = 5
	maximum = 81
Network latency average = 56.8119
	minimum = 5
	maximum = 81
Slowest packet = 78715
Flit latency average = 56.8119
	minimum = 5
	maximum = 81
Slowest flit = 78715
Fragmentation average = 0
	minimum = 0
	maximum = 0
Injected packet rate average = 0.499969
	minimum = 0.448 (at node 173)
	maximum = 0.541 (at node 74)
Accepted packet rate average = 0.47127
	minimum = 0.411 (at node 108)
	maximum = 0.536 (at node 65)
Injected flit rate average = 0.499969
	minimum = 0.448 (at node 173)
	maximum = 0.541 (at node 74)
Accepted flit rate average= 0.47127
	minimum = 0.411 (at node 108)
	maximum = 0.536 (at node 65)
Injected packet length average = 1
Accepted packet length average = 1
Total in-flight flits = 7347 (0 measured)
latency change    = 1
throughput change = 1
Class 0:
Packet latency average = 56.9146
	minimum = 5
	maximum = 81
Network latency average = 56.9146
	minimum = 5
	maximum = 81
Slowest packet = 78715
Flit latency average = 56.9146
	minimum = 5
	maximum = 81
Slowest flit = 78715
Fragmentation average = 0
	minimum = 0
	maximum = 0
Injected packet rate average = 0.50033
	minimum = 0.474 (at node 134)
	maximum = 0.5275 (at node 200)
Accepted packet rate average = 0.485939
	minimum = 0.448 (at node 125)
	maximum = 0.527 (at node 65)
Injected flit rate average = 0.50033
	minimum = 0.474 (at node 134)
	maximum = 0.5275 (at node 200)
Accepted flit rate average= 0.485939
	minimum = 0.448 (at node 125)
	maximum = 0.527 (at node 65)
Injected packet length average = 1
Accepted packet length average = 1
Total in-flight flits = 7368 (0 measured)
latency change    = 0.00180288
throughput change = 0.0301888
Class 0:
Packet latency average = 56.9976
	minimum = 5
	maximum = 76
Network latency average = 56.9976
	minimum = 5
	maximum = 76
Slowest packet = 372295
Flit latency average = 56.9976
	minimum = 5
	maximum = 76
Slowest flit = 372295
Fragmentation average = 0
	minimum = 0
	maximum = 0
Injected packet rate average = 0.500254
	minimum = 0.457 (at node 252)
	maximum = 0.541 (at node 42)
Accepted packet rate average = 0.500184
	minimum = 0.435 (at node 21)
	maximum = 0.578 (at node 244)
Injected flit rate average = 0.500254
	minimum = 0.457 (at node 252)
	maximum = 0.541 (at node 42)
Accepted flit rate average= 0.500184
	minimum = 0.435 (at node 21)
	maximum = 0.578 (at node 244)
Injected packet length average = 1
Accepted packet length average = 1
Total in-flight flits = 7386 (0 measured)
latency change    = 0.00145718
throughput change = 0.0284778
Warmed up ...Time used is 3000 cycles
Class 0:
Packet latency average = 56.7985
	minimum = 5
	maximum = 75
Network latency average = 56.7985
	minimum = 5
	maximum = 75
Slowest packet = 397207
Flit latency average = 56.9892
	minimum = 5
	maximum = 75
Slowest flit = 383528
Fragmentation average = 0
	minimum = 0
	maximum = 0
Injected packet rate average = 0.500387
	minimum = 0.459 (at node 153)
	maximum = 0.54 (at node 61)
Accepted packet rate average = 0.500668
	minimum = 0.431 (at node 20)
	maximum = 0.579 (at node 174)
Injected flit rate average = 0.500387
	minimum = 0.459 (at node 153)
	maximum = 0.54 (at node 61)
Accepted flit rate average= 0.500668
	minimum = 0.431 (at node 20)
	maximum = 0.579 (at node 174)
Injected packet length average = 1
Accepted packet length average = 1
Total in-flight flits = 7314 (7314 measured)
latency change    = 0.00350568
throughput change = 0.000967458
Class 0:
Packet latency average = 56.9204
	minimum = 5
	maximum = 76
Network latency average = 56.9204
	minimum = 5
	maximum = 76
Slowest packet = 533612
Flit latency average = 57.0124
	minimum = 5
	maximum = 76
Slowest flit = 533612
Fragmentation average = 0
	minimum = 0
	maximum = 0
Injected packet rate average = 0.499781
	minimum = 0.4635 (at node 42)
	maximum = 0.53 (at node 220)
Accepted packet rate average = 0.499908
	minimum = 0.458 (at node 176)
	maximum = 0.5495 (at node 174)
Injected flit rate average = 0.499781
	minimum = 0.4635 (at node 42)
	maximum = 0.53 (at node 220)
Accepted flit rate average= 0.499908
	minimum = 0.458 (at node 176)
	maximum = 0.5495 (at node 174)
Injected packet length average = 1
Accepted packet length average = 1
Total in-flight flits = 7321 (7321 measured)
latency change    = 0.00214191
throughput change = 0.00151981
Class 0:
Packet latency average = 56.9538
	minimum = 5
	maximum = 81
Network latency average = 56.9538
	minimum = 5
	maximum = 81
Slowest packet = 727438
Flit latency average = 57.0145
	minimum = 5
	maximum = 81
Slowest flit = 727438
Fragmentation average = 0
	minimum = 0
	maximum = 0
Injected packet rate average = 0.499389
	minimum = 0.470667 (at node 125)
	maximum = 0.523 (at node 241)
Accepted packet rate average = 0.499414
	minimum = 0.46 (at node 239)
	maximum = 0.547 (at node 121)
Injected flit rate average = 0.499389
	minimum = 0.470667 (at node 125)
	maximum = 0.523 (at node 241)
Accepted flit rate average= 0.499414
	minimum = 0.46 (at node 239)
	maximum = 0.547 (at node 121)
Injected packet length average = 1
Accepted packet length average = 1
Total in-flight flits = 7367 (7367 measured)
latency change    = 0.000585663
throughput change = 0.000989441
Draining all recorded packets ...
Draining remaining packets ...
Time taken is 6184 cycles
====== Overall Traffic Statistics ======
====== Traffic class 0 ======
Packet latency average = 57.0125 (1 samples)
	minimum = 5 (1 samples)
	maximum = 81 (1 samples)
Network latency average = 57.0125 (1 samples)
	minimum = 5 (1 samples)
	maximum = 81 (1 samples)
Flit latency average = 57.0645 (1 samples)
	minimum = 5 (1 samples)
	maximum = 81 (1 samples)
Fragmentation average = 0 (1 samples)
	minimum = 0 (1 samples)
	maximum = 0 (1 samples)
Injected packet rate average = 0.499389 (1 samples)
	minimum = 0.470667 (1 samples)
	maximum = 0.523 (1 samples)
Accepted packet rate average = 0.499414 (1 samples)
	minimum = 0.46 (1 samples)
	maximum = 0.547 (1 samples)
Injected flit rate average = 0.499389 (1 samples)
	minimum = 0.470667 (1 samples)
	maximum = 0.523 (1 samples)
Accepted flit rate average = 0.499414 (1 samples)
	minimum = 0.46 (1 samples)
	maximum = 0.547 (1 samples)
Injected packet size average = 1 (1 samples)
Accepted packet size average = 1 (1 samples)
Hops average = 1.93775 (1 samples)
Total run time 4.8253
