BEGIN Configuration File: ../../../../booksim2/src/examples/flatflyconfig
// $Id$

// Copyright (c) 2007-2015, Trustees of The Leland Stanford Junior University
// All rights reserved.
//
// Redistribution and use in source and binary forms, with or without
// modification, are permitted provided that the following conditions are met:
//
// Redistributions of source code must retain the above copyright notice, this
// list of conditions and the following disclaimer.
// Redistributions in binary form must reproduce the above copyright notice,
// this list of conditions and the following disclaimer in the documentation
// and/or other materials provided with the distribution.
//
// THIS SOFTWARE IS PROVIDED BY THE COPYRIGHT HOLDERS AND CONTRIBUTORS "AS IS"
// AND ANY EXPRESS OR IMPLIED WARRANTIES, INCLUDING, BUT NOT LIMITED TO, THE
// IMPLIED WARRANTIES OF MERCHANTABILITY AND FITNESS FOR A PARTICULAR PURPOSE
// ARE DISCLAIMED. IN NO EVENT SHALL THE COPYRIGHT OWNER OR CONTRIBUTORS BE
// LIABLE FOR ANY DIRECT, INDIRECT, INCIDENTAL, SPECIAL, EXEMPLARY, OR
// CONSEQUENTIAL DAMAGES (INCLUDING, BUT NOT LIMITED TO, PROCUREMENT OF
// SUBSTITUTE GOODS OR SERVICES; LOSS OF USE, DATA, OR PROFITS; OR BUSINESS
// INTERRUPTION) HOWEVER CAUSED AND ON ANY THEORY OF LIABILITY, WHETHER IN
// CONTRACT, STRICT LIABILITY, OR TORT (INCLUDING NEGLIGENCE OR OTHERWISE)
// ARISING IN ANY WAY OUT OF THE USE OF THIS SOFTWARE, EVEN IF ADVISED OF THE
// POSSIBILITY OF SUCH DAMAGE.

//A flattened butterfly configurate file with many tweaks from the
//default settings. 


// Flow control
// Total number of VCs must match the above assignments
num_vcs     = 2;
vc_buf_size = 128;

wait_for_tail_credit = 0;

//
// Router architectureq
//
vc_allocator = islip; 
sw_allocator = islip;
alloc_iters  = 3;

credit_delay   = 0;
routing_delay  = 1;
vc_alloc_delay = 1;
sw_alloc_delay = 1;
st_final_delay = 1;

input_speedup     = 1;
output_speedup    = 1;
internal_speedup  = 1.6;

//
// Traffic
//

warmup_periods = 3;

sample_period  = 1000;  

sim_count          = 1;

traffic       = uniform;


// Flatfly 
//
// #node = k^(n+1)
//
// x, y, specifies the arrangement of routers in x and y dim
// xr, yr specifiies the arayment of clients in a router
//
topology = flatfly;
subnets = 1;

c  = 16;
k  = 16;
n  = 1;

x  = 16;
y  = 1;
xr = 16;
yr = 1;

use_noc_latency = 0;

//
// Routing
//

routing_function = ran_min;

//1: batch mode, 0: injection mode
use_read_write = 0;

//for injection mode
packet_size = 1;
injection_rate = 0.1;

//for batch mode
read_request_size=1;
write_request_size=1;
read_reply_size=1;
write_reply_size=1;

read_request_begin_vc  = 0;
read_request_end_vc    = 3;
write_reply_begin_vc   = 4;
write_reply_end_vc     = 7;
read_reply_begin_vc    = 4;
read_reply_end_vc      = 7;
write_request_begin_vc = 0;
write_request_end_vc   = 3;

//latency: drains all packet, throughput:no drain?
sim_type = latency;

END Configuration File: ../../../../booksim2/src/examples/flatflyconfig
OVERRIDE Parameter: sim_type=latency
OVERRIDE Parameter: traffic=uniform
OVERRIDE Parameter: injection_rate={0.725}
 Flat Bufferfly 
 k = 16 n = 1 c = 16
 each switch - total radix =  31
 # of switches = 16
 # of channels = 240
 # of nodes ( size of network ) = 256
Class 0:
Packet latency average = 67.7782
	minimum = 5
	maximum = 159
Network latency average = 67.7782
	minimum = 5
	maximum = 159
Slowest packet = 149428
Flit latency average = 67.7782
	minimum = 5
	maximum = 159
Slowest flit = 149428
Fragmentation average = 0
	minimum = 0
	maximum = 0
Injected packet rate average = 0.724391
	minimum = 0.688 (at node 172)
	maximum = 0.756 (at node 26)
Accepted packet rate average = 0.670457
	minimum = 0.607 (at node 95)
	maximum = 0.739 (at node 248)
Injected flit rate average = 0.724391
	minimum = 0.688 (at node 172)
	maximum = 0.756 (at node 26)
Accepted flit rate average= 0.670457
	minimum = 0.607 (at node 95)
	maximum = 0.739 (at node 248)
Injected packet length average = 1
Accepted packet length average = 1
Total in-flight flits = 13807 (0 measured)
latency change    = 1
throughput change = 1
Class 0:
Packet latency average = 73.6613
	minimum = 5
	maximum = 207
Network latency average = 73.6613
	minimum = 5
	maximum = 207
Slowest packet = 330896
Flit latency average = 73.6613
	minimum = 5
	maximum = 207
Slowest flit = 330896
Fragmentation average = 0
	minimum = 0
	maximum = 0
Injected packet rate average = 0.724246
	minimum = 0.697 (at node 244)
	maximum = 0.749 (at node 10)
Accepted packet rate average = 0.693781
	minimum = 0.636 (at node 21)
	maximum = 0.74 (at node 68)
Injected flit rate average = 0.724246
	minimum = 0.697 (at node 244)
	maximum = 0.749 (at node 10)
Accepted flit rate average= 0.693781
	minimum = 0.636 (at node 21)
	maximum = 0.74 (at node 68)
Injected packet length average = 1
Accepted packet length average = 1
Total in-flight flits = 15598 (0 measured)
latency change    = 0.0798667
throughput change = 0.033619
Class 0:
Packet latency average = 87.6612
	minimum = 5
	maximum = 251
Network latency average = 87.6612
	minimum = 5
	maximum = 251
Slowest packet = 497320
Flit latency average = 87.6612
	minimum = 5
	maximum = 251
Slowest flit = 497320
Fragmentation average = 0
	minimum = 0
	maximum = 0
Injected packet rate average = 0.724391
	minimum = 0.686 (at node 212)
	maximum = 0.773 (at node 149)
Accepted packet rate average = 0.718535
	minimum = 0.651 (at node 20)
	maximum = 0.806 (at node 174)
Injected flit rate average = 0.724391
	minimum = 0.686 (at node 212)
	maximum = 0.773 (at node 149)
Accepted flit rate average= 0.718535
	minimum = 0.651 (at node 20)
	maximum = 0.806 (at node 174)
Injected packet length average = 1
Accepted packet length average = 1
Total in-flight flits = 17097 (0 measured)
latency change    = 0.159705
throughput change = 0.0344505
Warmed up ...Time used is 3000 cycles
Class 0:
Packet latency average = 93.8968
	minimum = 5
	maximum = 256
Network latency average = 93.8968
	minimum = 5
	maximum = 256
Slowest packet = 589591
Flit latency average = 95.7784
	minimum = 5
	maximum = 256
Slowest flit = 589591
Fragmentation average = 0
	minimum = 0
	maximum = 0
Injected packet rate average = 0.725375
	minimum = 0.678 (at node 153)
	maximum = 0.768 (at node 87)
Accepted packet rate average = 0.719496
	minimum = 0.643 (at node 239)
	maximum = 0.808 (at node 255)
Injected flit rate average = 0.725375
	minimum = 0.678 (at node 153)
	maximum = 0.768 (at node 87)
Accepted flit rate average= 0.719496
	minimum = 0.643 (at node 239)
	maximum = 0.808 (at node 255)
Injected packet length average = 1
Accepted packet length average = 1
Total in-flight flits = 18602 (18602 measured)
latency change    = 0.066409
throughput change = 0.00133557
Class 0:
Packet latency average = 98.9436
	minimum = 5
	maximum = 266
Network latency average = 98.9436
	minimum = 5
	maximum = 266
Slowest packet = 834354
Flit latency average = 99.6499
	minimum = 5
	maximum = 266
Slowest flit = 834354
Fragmentation average = 0
	minimum = 0
	maximum = 0
Injected packet rate average = 0.725068
	minimum = 0.699 (at node 92)
	maximum = 0.753 (at node 86)
Accepted packet rate average = 0.719799
	minimum = 0.6575 (at node 237)
	maximum = 0.775 (at node 225)
Injected flit rate average = 0.725068
	minimum = 0.699 (at node 92)
	maximum = 0.753 (at node 86)
Accepted flit rate average= 0.719799
	minimum = 0.6575 (at node 237)
	maximum = 0.775 (at node 225)
Injected packet length average = 1
Accepted packet length average = 1
Total in-flight flits = 19795 (19795 measured)
latency change    = 0.0510074
throughput change = 0.000420582
Class 0:
Packet latency average = 102.639
	minimum = 5
	maximum = 282
Network latency average = 102.639
	minimum = 5
	maximum = 282
Slowest packet = 914620
Flit latency average = 102.995
	minimum = 5
	maximum = 282
Slowest flit = 914620
Fragmentation average = 0
	minimum = 0
	maximum = 0
Injected packet rate average = 0.724754
	minimum = 0.698 (at node 243)
	maximum = 0.747 (at node 132)
Accepted packet rate average = 0.719797
	minimum = 0.671 (at node 237)
	maximum = 0.767333 (at node 79)
Injected flit rate average = 0.724754
	minimum = 0.698 (at node 243)
	maximum = 0.747 (at node 132)
Accepted flit rate average= 0.719797
	minimum = 0.671 (at node 237)
	maximum = 0.767333 (at node 79)
Injected packet length average = 1
Accepted packet length average = 1
Total in-flight flits = 20904 (20904 measured)
latency change    = 0.0359998
throughput change = 2.71344e-06
Class 0:
Packet latency average = 105.761
	minimum = 5
	maximum = 282
Network latency average = 105.761
	minimum = 5
	maximum = 282
Slowest packet = 914620
Flit latency average = 105.956
	minimum = 5
	maximum = 282
Slowest flit = 914620
Fragmentation average = 0
	minimum = 0
	maximum = 0
Injected packet rate average = 0.724981
	minimum = 0.7005 (at node 243)
	maximum = 0.74975 (at node 132)
Accepted packet rate average = 0.720285
	minimum = 0.684 (at node 55)
	maximum = 0.7675 (at node 225)
Injected flit rate average = 0.724981
	minimum = 0.7005 (at node 243)
	maximum = 0.74975 (at node 132)
Accepted flit rate average= 0.720285
	minimum = 0.684 (at node 55)
	maximum = 0.7675 (at node 225)
Injected packet length average = 1
Accepted packet length average = 1
Total in-flight flits = 21906 (21906 measured)
latency change    = 0.029527
throughput change = 0.0006779
Class 0:
Packet latency average = 108.687
	minimum = 5
	maximum = 282
Network latency average = 108.687
	minimum = 5
	maximum = 282
Slowest packet = 914620
Flit latency average = 108.789
	minimum = 5
	maximum = 282
Slowest flit = 914620
Fragmentation average = 0
	minimum = 0
	maximum = 0
Injected packet rate average = 0.724938
	minimum = 0.7082 (at node 131)
	maximum = 0.7428 (at node 67)
Accepted packet rate average = 0.720619
	minimum = 0.6906 (at node 55)
	maximum = 0.7578 (at node 225)
Injected flit rate average = 0.724938
	minimum = 0.7082 (at node 131)
	maximum = 0.7428 (at node 67)
Accepted flit rate average= 0.720619
	minimum = 0.6906 (at node 55)
	maximum = 0.7578 (at node 225)
Injected packet length average = 1
Accepted packet length average = 1
Total in-flight flits = 22625 (22625 measured)
latency change    = 0.0269218
throughput change = 0.000462927
Draining all recorded packets ...
Draining remaining packets ...
Time taken is 8534 cycles
====== Overall Traffic Statistics ======
====== Traffic class 0 ======
Packet latency average = 109.96 (1 samples)
	minimum = 5 (1 samples)
	maximum = 282 (1 samples)
Network latency average = 109.96 (1 samples)
	minimum = 5 (1 samples)
	maximum = 282 (1 samples)
Flit latency average = 110.559 (1 samples)
	minimum = 5 (1 samples)
	maximum = 282 (1 samples)
Fragmentation average = 0 (1 samples)
	minimum = 0 (1 samples)
	maximum = 0 (1 samples)
Injected packet rate average = 0.724938 (1 samples)
	minimum = 0.7082 (1 samples)
	maximum = 0.7428 (1 samples)
Accepted packet rate average = 0.720619 (1 samples)
	minimum = 0.6906 (1 samples)
	maximum = 0.7578 (1 samples)
Injected flit rate average = 0.724938 (1 samples)
	minimum = 0.7082 (1 samples)
	maximum = 0.7428 (1 samples)
Accepted flit rate average = 0.720619 (1 samples)
	minimum = 0.6906 (1 samples)
	maximum = 0.7578 (1 samples)
Injected packet size average = 1 (1 samples)
Accepted packet size average = 1 (1 samples)
Hops average = 1.9379 (1 samples)
Total run time 9.84044
