BEGIN Configuration File: ../../../../booksim2/src/examples/flatflyconfig
// $Id$

// Copyright (c) 2007-2015, Trustees of The Leland Stanford Junior University
// All rights reserved.
//
// Redistribution and use in source and binary forms, with or without
// modification, are permitted provided that the following conditions are met:
//
// Redistributions of source code must retain the above copyright notice, this
// list of conditions and the following disclaimer.
// Redistributions in binary form must reproduce the above copyright notice,
// this list of conditions and the following disclaimer in the documentation
// and/or other materials provided with the distribution.
//
// THIS SOFTWARE IS PROVIDED BY THE COPYRIGHT HOLDERS AND CONTRIBUTORS "AS IS"
// AND ANY EXPRESS OR IMPLIED WARRANTIES, INCLUDING, BUT NOT LIMITED TO, THE
// IMPLIED WARRANTIES OF MERCHANTABILITY AND FITNESS FOR A PARTICULAR PURPOSE
// ARE DISCLAIMED. IN NO EVENT SHALL THE COPYRIGHT OWNER OR CONTRIBUTORS BE
// LIABLE FOR ANY DIRECT, INDIRECT, INCIDENTAL, SPECIAL, EXEMPLARY, OR
// CONSEQUENTIAL DAMAGES (INCLUDING, BUT NOT LIMITED TO, PROCUREMENT OF
// SUBSTITUTE GOODS OR SERVICES; LOSS OF USE, DATA, OR PROFITS; OR BUSINESS
// INTERRUPTION) HOWEVER CAUSED AND ON ANY THEORY OF LIABILITY, WHETHER IN
// CONTRACT, STRICT LIABILITY, OR TORT (INCLUDING NEGLIGENCE OR OTHERWISE)
// ARISING IN ANY WAY OUT OF THE USE OF THIS SOFTWARE, EVEN IF ADVISED OF THE
// POSSIBILITY OF SUCH DAMAGE.

//A flattened butterfly configurate file with many tweaks from the
//default settings. 


// Flow control
// Total number of VCs must match the above assignments
num_vcs     = 2;
vc_buf_size = 128;

wait_for_tail_credit = 0;

//
// Router architectureq
//
vc_allocator = islip; 
sw_allocator = islip;
alloc_iters  = 3;

credit_delay   = 0;
routing_delay  = 1;
vc_alloc_delay = 1;
sw_alloc_delay = 1;
st_final_delay = 1;

input_speedup     = 1;
output_speedup    = 1;
internal_speedup  = 1.6;

//
// Traffic
//

warmup_periods = 3;

sample_period  = 1000;  

sim_count          = 1;

traffic       = uniform;


// Flatfly 
//
// #node = k^(n+1)
//
// x, y, specifies the arrangement of routers in x and y dim
// xr, yr specifiies the arayment of clients in a router
//
topology = flatfly;
subnets = 1;

c  = 16;
k  = 16;
n  = 1;

x  = 16;
y  = 1;
xr = 16;
yr = 1;

use_noc_latency = 0;

//
// Routing
//

routing_function = ran_min;

//1: batch mode, 0: injection mode
use_read_write = 0;

//for injection mode
packet_size = 1;
injection_rate = 0.1;

//for batch mode
read_request_size=1;
write_request_size=1;
read_reply_size=1;
write_reply_size=1;

read_request_begin_vc  = 0;
read_request_end_vc    = 3;
write_reply_begin_vc   = 4;
write_reply_end_vc     = 7;
read_reply_begin_vc    = 4;
read_reply_end_vc      = 7;
write_request_begin_vc = 0;
write_request_end_vc   = 3;

//latency: drains all packet, throughput:no drain?
sim_type = latency;

END Configuration File: ../../../../booksim2/src/examples/flatflyconfig
OVERRIDE Parameter: sim_type=latency
OVERRIDE Parameter: traffic=uniform
OVERRIDE Parameter: injection_rate={0.15}
 Flat Bufferfly 
 k = 16 n = 1 c = 16
 each switch - total radix =  31
 # of switches = 16
 # of channels = 240
 # of nodes ( size of network ) = 256
Class 0:
Packet latency average = 55.5047
	minimum = 5
	maximum = 64
Network latency average = 55.5047
	minimum = 5
	maximum = 64
Slowest packet = 14602
Flit latency average = 55.5047
	minimum = 5
	maximum = 64
Slowest flit = 14602
Fragmentation average = 0
	minimum = 0
	maximum = 0
Injected packet rate average = 0.149621
	minimum = 0.118 (at node 203)
	maximum = 0.183 (at node 22)
Accepted packet rate average = 0.141254
	minimum = 0.11 (at node 15)
	maximum = 0.185 (at node 248)
Injected flit rate average = 0.149621
	minimum = 0.118 (at node 203)
	maximum = 0.183 (at node 22)
Accepted flit rate average= 0.141254
	minimum = 0.11 (at node 15)
	maximum = 0.185 (at node 248)
Injected packet length average = 1
Accepted packet length average = 1
Total in-flight flits = 2142 (0 measured)
latency change    = 1
throughput change = 1
Class 0:
Packet latency average = 55.5477
	minimum = 5
	maximum = 64
Network latency average = 55.5477
	minimum = 5
	maximum = 64
Slowest packet = 14602
Flit latency average = 55.5477
	minimum = 5
	maximum = 64
Slowest flit = 14602
Fragmentation average = 0
	minimum = 0
	maximum = 0
Injected packet rate average = 0.14948
	minimum = 0.126 (at node 85)
	maximum = 0.173 (at node 101)
Accepted packet rate average = 0.145334
	minimum = 0.123 (at node 108)
	maximum = 0.17 (at node 65)
Injected flit rate average = 0.14948
	minimum = 0.126 (at node 85)
	maximum = 0.173 (at node 101)
Accepted flit rate average= 0.145334
	minimum = 0.123 (at node 108)
	maximum = 0.17 (at node 65)
Injected packet length average = 1
Accepted packet length average = 1
Total in-flight flits = 2123 (0 measured)
latency change    = 0.000773862
throughput change = 0.0280738
Class 0:
Packet latency average = 55.5815
	minimum = 5
	maximum = 63
Network latency average = 55.5815
	minimum = 5
	maximum = 63
Slowest packet = 75378
Flit latency average = 55.5815
	minimum = 5
	maximum = 63
Slowest flit = 75378
Fragmentation average = 0
	minimum = 0
	maximum = 0
Injected packet rate average = 0.150281
	minimum = 0.121 (at node 110)
	maximum = 0.185 (at node 45)
Accepted packet rate average = 0.150082
	minimum = 0.113 (at node 216)
	maximum = 0.192 (at node 55)
Injected flit rate average = 0.150281
	minimum = 0.121 (at node 110)
	maximum = 0.185 (at node 45)
Accepted flit rate average= 0.150082
	minimum = 0.113 (at node 216)
	maximum = 0.192 (at node 55)
Injected packet length average = 1
Accepted packet length average = 1
Total in-flight flits = 2174 (0 measured)
latency change    = 0.000607245
throughput change = 0.0316363
Warmed up ...Time used is 3000 cycles
Class 0:
Packet latency average = 55.4778
	minimum = 5
	maximum = 64
Network latency average = 55.4778
	minimum = 5
	maximum = 64
Slowest packet = 144918
Flit latency average = 55.6538
	minimum = 5
	maximum = 64
Slowest flit = 144918
Fragmentation average = 0
	minimum = 0
	maximum = 0
Injected packet rate average = 0.150199
	minimum = 0.115 (at node 92)
	maximum = 0.184 (at node 238)
Accepted packet rate average = 0.150266
	minimum = 0.114 (at node 252)
	maximum = 0.193 (at node 8)
Injected flit rate average = 0.150199
	minimum = 0.115 (at node 92)
	maximum = 0.184 (at node 238)
Accepted flit rate average= 0.150266
	minimum = 0.114 (at node 252)
	maximum = 0.193 (at node 8)
Injected packet length average = 1
Accepted packet length average = 1
Total in-flight flits = 2157 (2157 measured)
latency change    = 0.00186751
throughput change = 0.00122179
Class 0:
Packet latency average = 55.5852
	minimum = 5
	maximum = 64
Network latency average = 55.5852
	minimum = 5
	maximum = 64
Slowest packet = 144918
Flit latency average = 55.6701
	minimum = 5
	maximum = 64
Slowest flit = 144918
Fragmentation average = 0
	minimum = 0
	maximum = 0
Injected packet rate average = 0.150277
	minimum = 0.1305 (at node 32)
	maximum = 0.176 (at node 165)
Accepted packet rate average = 0.150422
	minimum = 0.13 (at node 115)
	maximum = 0.1835 (at node 181)
Injected flit rate average = 0.150277
	minimum = 0.1305 (at node 32)
	maximum = 0.176 (at node 165)
Accepted flit rate average= 0.150422
	minimum = 0.13 (at node 115)
	maximum = 0.1835 (at node 181)
Injected packet length average = 1
Accepted packet length average = 1
Total in-flight flits = 2100 (2100 measured)
latency change    = 0.00193142
throughput change = 0.00103875
Class 0:
Packet latency average = 55.5882
	minimum = 5
	maximum = 64
Network latency average = 55.5882
	minimum = 5
	maximum = 64
Slowest packet = 144918
Flit latency average = 55.6447
	minimum = 5
	maximum = 64
Slowest flit = 144918
Fragmentation average = 0
	minimum = 0
	maximum = 0
Injected packet rate average = 0.150651
	minimum = 0.131333 (at node 139)
	maximum = 0.169 (at node 80)
Accepted packet rate average = 0.150738
	minimum = 0.132667 (at node 236)
	maximum = 0.172667 (at node 181)
Injected flit rate average = 0.150651
	minimum = 0.131333 (at node 139)
	maximum = 0.169 (at node 80)
Accepted flit rate average= 0.150738
	minimum = 0.132667 (at node 236)
	maximum = 0.172667 (at node 181)
Injected packet length average = 1
Accepted packet length average = 1
Total in-flight flits = 2107 (2107 measured)
latency change    = 5.47437e-05
throughput change = 0.00209904
Draining all recorded packets ...
Draining remaining packets ...
Time taken is 6169 cycles
====== Overall Traffic Statistics ======
====== Traffic class 0 ======
Packet latency average = 55.6425 (1 samples)
	minimum = 5 (1 samples)
	maximum = 64 (1 samples)
Network latency average = 55.6425 (1 samples)
	minimum = 5 (1 samples)
	maximum = 64 (1 samples)
Flit latency average = 55.7041 (1 samples)
	minimum = 5 (1 samples)
	maximum = 64 (1 samples)
Fragmentation average = 0 (1 samples)
	minimum = 0 (1 samples)
	maximum = 0 (1 samples)
Injected packet rate average = 0.150651 (1 samples)
	minimum = 0.131333 (1 samples)
	maximum = 0.169 (1 samples)
Accepted packet rate average = 0.150738 (1 samples)
	minimum = 0.132667 (1 samples)
	maximum = 0.172667 (1 samples)
Injected flit rate average = 0.150651 (1 samples)
	minimum = 0.131333 (1 samples)
	maximum = 0.169 (1 samples)
Accepted flit rate average = 0.150738 (1 samples)
	minimum = 0.132667 (1 samples)
	maximum = 0.172667 (1 samples)
Injected packet size average = 1 (1 samples)
Accepted packet size average = 1 (1 samples)
Hops average = 1.93818 (1 samples)
Total run time 1.58616
