BEGIN Configuration File: ../../../../booksim2/src/examples/flatflyconfig
// $Id$

// Copyright (c) 2007-2015, Trustees of The Leland Stanford Junior University
// All rights reserved.
//
// Redistribution and use in source and binary forms, with or without
// modification, are permitted provided that the following conditions are met:
//
// Redistributions of source code must retain the above copyright notice, this
// list of conditions and the following disclaimer.
// Redistributions in binary form must reproduce the above copyright notice,
// this list of conditions and the following disclaimer in the documentation
// and/or other materials provided with the distribution.
//
// THIS SOFTWARE IS PROVIDED BY THE COPYRIGHT HOLDERS AND CONTRIBUTORS "AS IS"
// AND ANY EXPRESS OR IMPLIED WARRANTIES, INCLUDING, BUT NOT LIMITED TO, THE
// IMPLIED WARRANTIES OF MERCHANTABILITY AND FITNESS FOR A PARTICULAR PURPOSE
// ARE DISCLAIMED. IN NO EVENT SHALL THE COPYRIGHT OWNER OR CONTRIBUTORS BE
// LIABLE FOR ANY DIRECT, INDIRECT, INCIDENTAL, SPECIAL, EXEMPLARY, OR
// CONSEQUENTIAL DAMAGES (INCLUDING, BUT NOT LIMITED TO, PROCUREMENT OF
// SUBSTITUTE GOODS OR SERVICES; LOSS OF USE, DATA, OR PROFITS; OR BUSINESS
// INTERRUPTION) HOWEVER CAUSED AND ON ANY THEORY OF LIABILITY, WHETHER IN
// CONTRACT, STRICT LIABILITY, OR TORT (INCLUDING NEGLIGENCE OR OTHERWISE)
// ARISING IN ANY WAY OUT OF THE USE OF THIS SOFTWARE, EVEN IF ADVISED OF THE
// POSSIBILITY OF SUCH DAMAGE.

//A flattened butterfly configurate file with many tweaks from the
//default settings. 


// Flow control
// Total number of VCs must match the above assignments
num_vcs     = 2;
vc_buf_size = 128;

wait_for_tail_credit = 0;

//
// Router architectureq
//
vc_allocator = islip; 
sw_allocator = islip;
alloc_iters  = 3;

credit_delay   = 0;
routing_delay  = 1;
vc_alloc_delay = 1;
sw_alloc_delay = 1;
st_final_delay = 1;

input_speedup     = 1;
output_speedup    = 1;
internal_speedup  = 1.6;

//
// Traffic
//

warmup_periods = 3;

sample_period  = 1000;  

sim_count          = 1;

traffic       = uniform;


// Flatfly 
//
// #node = k^(n+1)
//
// x, y, specifies the arrangement of routers in x and y dim
// xr, yr specifiies the arayment of clients in a router
//
topology = flatfly;
subnets = 1;

c  = 16;
k  = 16;
n  = 1;

x  = 16;
y  = 1;
xr = 16;
yr = 1;

use_noc_latency = 0;

//
// Routing
//

routing_function = ran_min;

//1: batch mode, 0: injection mode
use_read_write = 0;

//for injection mode
packet_size = 1;
injection_rate = 0.1;

//for batch mode
read_request_size=1;
write_request_size=1;
read_reply_size=1;
write_reply_size=1;

read_request_begin_vc  = 0;
read_request_end_vc    = 3;
write_reply_begin_vc   = 4;
write_reply_end_vc     = 7;
read_reply_begin_vc    = 4;
read_reply_end_vc      = 7;
write_request_begin_vc = 0;
write_request_end_vc   = 3;

//latency: drains all packet, throughput:no drain?
sim_type = latency;

END Configuration File: ../../../../booksim2/src/examples/flatflyconfig
OVERRIDE Parameter: sim_type=latency
OVERRIDE Parameter: traffic=uniform
OVERRIDE Parameter: injection_rate={1}
 Flat Bufferfly 
 k = 16 n = 1 c = 16
 each switch - total radix =  31
 # of switches = 16
 # of channels = 240
 # of nodes ( size of network ) = 256
Class 0:
Packet latency average = 161.162
	minimum = 5
	maximum = 407
Network latency average = 161.162
	minimum = 5
	maximum = 407
Slowest packet = 144333
Flit latency average = 161.162
	minimum = 5
	maximum = 407
Slowest flit = 144333
Fragmentation average = 0
	minimum = 0
	maximum = 0
Injected packet rate average = 1
	minimum = 1 (at node 0)
	maximum = 1 (at node 0)
Accepted packet rate average = 0.731102
	minimum = 0.665 (at node 110)
	maximum = 0.804 (at node 186)
Injected flit rate average = 1
	minimum = 1 (at node 0)
	maximum = 1 (at node 0)
Accepted flit rate average= 0.731102
	minimum = 0.665 (at node 110)
	maximum = 0.804 (at node 186)
Injected packet length average = 1
Accepted packet length average = 1
Total in-flight flits = 68838 (0 measured)
latency change    = 1
throughput change = 1
Class 0:
Packet latency average = 274.134
	minimum = 5
	maximum = 629
Network latency average = 273.236
	minimum = 5
	maximum = 619
Slowest packet = 340204
Flit latency average = 273.236
	minimum = 5
	maximum = 619
Slowest flit = 342501
Fragmentation average = 0
	minimum = 0
	maximum = 0
Injected packet rate average = 0.939576
	minimum = 0.9145 (at node 167)
	maximum = 0.962 (at node 27)
Accepted packet rate average = 0.753162
	minimum = 0.7015 (at node 95)
	maximum = 0.8055 (at node 68)
Injected flit rate average = 0.939576
	minimum = 0.9145 (at node 167)
	maximum = 0.962 (at node 27)
Accepted flit rate average= 0.753162
	minimum = 0.7015 (at node 95)
	maximum = 0.8055 (at node 68)
Injected packet length average = 1
Accepted packet length average = 1
Total in-flight flits = 95530 (0 measured)
latency change    = 0.412107
throughput change = 0.0292906
Class 0:
Packet latency average = 605.657
	minimum = 332
	maximum = 862
Network latency average = 480.091
	minimum = 289
	maximum = 640
Slowest packet = 361406
Flit latency average = 480.091
	minimum = 289
	maximum = 640
Slowest flit = 430596
Fragmentation average = 0
	minimum = 0
	maximum = 0
Injected packet rate average = 0.775262
	minimum = 0.742 (at node 46)
	maximum = 0.814 (at node 10)
Accepted packet rate average = 0.775262
	minimum = 0.694 (at node 20)
	maximum = 0.87 (at node 174)
Injected flit rate average = 0.775262
	minimum = 0.742 (at node 46)
	maximum = 0.814 (at node 10)
Accepted flit rate average= 0.775262
	minimum = 0.694 (at node 20)
	maximum = 0.87 (at node 174)
Injected packet length average = 1
Accepted packet length average = 1
Total in-flight flits = 95524 (0 measured)
latency change    = 0.547378
throughput change = 0.028506
Average latency for class 0 exceeded 500 cycles. Aborting simulation.
Too many sample periods needed to converge
Simulation unstable, ending ...
Total run time 5.21033
