BEGIN Configuration File: ../../../../booksim2/src/examples/flatflyconfig
// $Id$

// Copyright (c) 2007-2015, Trustees of The Leland Stanford Junior University
// All rights reserved.
//
// Redistribution and use in source and binary forms, with or without
// modification, are permitted provided that the following conditions are met:
//
// Redistributions of source code must retain the above copyright notice, this
// list of conditions and the following disclaimer.
// Redistributions in binary form must reproduce the above copyright notice,
// this list of conditions and the following disclaimer in the documentation
// and/or other materials provided with the distribution.
//
// THIS SOFTWARE IS PROVIDED BY THE COPYRIGHT HOLDERS AND CONTRIBUTORS "AS IS"
// AND ANY EXPRESS OR IMPLIED WARRANTIES, INCLUDING, BUT NOT LIMITED TO, THE
// IMPLIED WARRANTIES OF MERCHANTABILITY AND FITNESS FOR A PARTICULAR PURPOSE
// ARE DISCLAIMED. IN NO EVENT SHALL THE COPYRIGHT OWNER OR CONTRIBUTORS BE
// LIABLE FOR ANY DIRECT, INDIRECT, INCIDENTAL, SPECIAL, EXEMPLARY, OR
// CONSEQUENTIAL DAMAGES (INCLUDING, BUT NOT LIMITED TO, PROCUREMENT OF
// SUBSTITUTE GOODS OR SERVICES; LOSS OF USE, DATA, OR PROFITS; OR BUSINESS
// INTERRUPTION) HOWEVER CAUSED AND ON ANY THEORY OF LIABILITY, WHETHER IN
// CONTRACT, STRICT LIABILITY, OR TORT (INCLUDING NEGLIGENCE OR OTHERWISE)
// ARISING IN ANY WAY OUT OF THE USE OF THIS SOFTWARE, EVEN IF ADVISED OF THE
// POSSIBILITY OF SUCH DAMAGE.

//A flattened butterfly configurate file with many tweaks from the
//default settings. 


// Flow control
// Total number of VCs must match the above assignments
num_vcs     = 2;
vc_buf_size = 128;

wait_for_tail_credit = 0;

//
// Router architectureq
//
vc_allocator = islip; 
sw_allocator = islip;
alloc_iters  = 3;

credit_delay   = 0;
routing_delay  = 1;
vc_alloc_delay = 1;
sw_alloc_delay = 1;
st_final_delay = 1;

input_speedup     = 1;
output_speedup    = 1;
internal_speedup  = 1.6;

//
// Traffic
//

warmup_periods = 3;

sample_period  = 1000;  

sim_count          = 1;

traffic       = uniform;


// Flatfly 
//
// #node = k^(n+1)
//
// x, y, specifies the arrangement of routers in x and y dim
// xr, yr specifiies the arayment of clients in a router
//
topology = flatfly;
subnets = 1;

c  = 16;
k  = 16;
n  = 1;

x  = 16;
y  = 1;
xr = 16;
yr = 1;

use_noc_latency = 0;

//
// Routing
//

routing_function = ran_min;

//1: batch mode, 0: injection mode
use_read_write = 0;

//for injection mode
packet_size = 1;
injection_rate = 0.1;

//for batch mode
read_request_size=1;
write_request_size=1;
read_reply_size=1;
write_reply_size=1;

read_request_begin_vc  = 0;
read_request_end_vc    = 3;
write_reply_begin_vc   = 4;
write_reply_end_vc     = 7;
read_reply_begin_vc    = 4;
read_reply_end_vc      = 7;
write_request_begin_vc = 0;
write_request_end_vc   = 3;

//latency: drains all packet, throughput:no drain?
sim_type = latency;

END Configuration File: ../../../../booksim2/src/examples/flatflyconfig
OVERRIDE Parameter: sim_type=latency
OVERRIDE Parameter: traffic=uniform
OVERRIDE Parameter: injection_rate={0.775}
 Flat Bufferfly 
 k = 16 n = 1 c = 16
 each switch - total radix =  31
 # of switches = 16
 # of channels = 240
 # of nodes ( size of network ) = 256
Class 0:
Packet latency average = 79.1991
	minimum = 5
	maximum = 221
Network latency average = 79.1991
	minimum = 5
	maximum = 221
Slowest packet = 146237
Flit latency average = 79.1991
	minimum = 5
	maximum = 221
Slowest flit = 146237
Fragmentation average = 0
	minimum = 0
	maximum = 0
Injected packet rate average = 0.773855
	minimum = 0.732 (at node 110)
	maximum = 0.807 (at node 83)
Accepted packet rate average = 0.697457
	minimum = 0.641 (at node 110)
	maximum = 0.763 (at node 65)
Injected flit rate average = 0.773855
	minimum = 0.732 (at node 110)
	maximum = 0.807 (at node 83)
Accepted flit rate average= 0.697457
	minimum = 0.641 (at node 110)
	maximum = 0.763 (at node 65)
Injected packet length average = 1
Accepted packet length average = 1
Total in-flight flits = 19558 (0 measured)
latency change    = 1
throughput change = 1
Class 0:
Packet latency average = 98.3566
	minimum = 5
	maximum = 284
Network latency average = 98.3566
	minimum = 5
	maximum = 284
Slowest packet = 330021
Flit latency average = 98.3566
	minimum = 5
	maximum = 284
Slowest flit = 330021
Fragmentation average = 0
	minimum = 0
	maximum = 0
Injected packet rate average = 0.774037
	minimum = 0.7475 (at node 110)
	maximum = 0.801 (at node 63)
Accepted packet rate average = 0.721281
	minimum = 0.666 (at node 21)
	maximum = 0.7705 (at node 220)
Injected flit rate average = 0.774037
	minimum = 0.7475 (at node 110)
	maximum = 0.801 (at node 63)
Accepted flit rate average= 0.721281
	minimum = 0.666 (at node 21)
	maximum = 0.7705 (at node 220)
Injected packet length average = 1
Accepted packet length average = 1
Total in-flight flits = 27011 (0 measured)
latency change    = 0.194776
throughput change = 0.0330304
Class 0:
Packet latency average = 147.939
	minimum = 5
	maximum = 304
Network latency average = 147.939
	minimum = 5
	maximum = 304
Slowest packet = 532961
Flit latency average = 147.939
	minimum = 5
	maximum = 304
Slowest flit = 532961
Fragmentation average = 0
	minimum = 0
	maximum = 0
Injected packet rate average = 0.773766
	minimum = 0.741 (at node 53)
	maximum = 0.813 (at node 149)
Accepted packet rate average = 0.756543
	minimum = 0.67 (at node 20)
	maximum = 0.853 (at node 174)
Injected flit rate average = 0.773766
	minimum = 0.741 (at node 53)
	maximum = 0.813 (at node 149)
Accepted flit rate average= 0.756543
	minimum = 0.67 (at node 20)
	maximum = 0.853 (at node 174)
Injected packet length average = 1
Accepted packet length average = 1
Total in-flight flits = 31420 (0 measured)
latency change    = 0.335155
throughput change = 0.046609
Warmed up ...Time used is 3000 cycles
Class 0:
Packet latency average = 155.416
	minimum = 5
	maximum = 340
Network latency average = 155.416
	minimum = 5
	maximum = 340
Slowest packet = 703971
Flit latency average = 164.169
	minimum = 5
	maximum = 340
Slowest flit = 703971
Fragmentation average = 0
	minimum = 0
	maximum = 0
Injected packet rate average = 0.775422
	minimum = 0.733 (at node 153)
	maximum = 0.808 (at node 99)
Accepted packet rate average = 0.766953
	minimum = 0.685 (at node 239)
	maximum = 0.844 (at node 34)
Injected flit rate average = 0.775422
	minimum = 0.733 (at node 153)
	maximum = 0.808 (at node 99)
Accepted flit rate average= 0.766953
	minimum = 0.685 (at node 239)
	maximum = 0.844 (at node 34)
Injected packet length average = 1
Accepted packet length average = 1
Total in-flight flits = 33588 (33588 measured)
latency change    = 0.0481055
throughput change = 0.0135734
Class 0:
Packet latency average = 164.764
	minimum = 5
	maximum = 367
Network latency average = 164.764
	minimum = 5
	maximum = 367
Slowest packet = 911745
Flit latency average = 168.385
	minimum = 5
	maximum = 367
Slowest flit = 911745
Fragmentation average = 0
	minimum = 0
	maximum = 0
Injected packet rate average = 0.775346
	minimum = 0.7525 (at node 159)
	maximum = 0.7965 (at node 59)
Accepted packet rate average = 0.76848
	minimum = 0.7065 (at node 237)
	maximum = 0.8235 (at node 225)
Injected flit rate average = 0.775346
	minimum = 0.7525 (at node 159)
	maximum = 0.7965 (at node 59)
Accepted flit rate average= 0.76848
	minimum = 0.7065 (at node 237)
	maximum = 0.8235 (at node 225)
Injected packet length average = 1
Accepted packet length average = 1
Total in-flight flits = 34935 (34935 measured)
latency change    = 0.0567371
throughput change = 0.00198749
Class 0:
Packet latency average = 170.022
	minimum = 5
	maximum = 377
Network latency average = 170.022
	minimum = 5
	maximum = 377
Slowest packet = 1086208
Flit latency average = 172.156
	minimum = 5
	maximum = 377
Slowest flit = 1086208
Fragmentation average = 0
	minimum = 0
	maximum = 0
Injected packet rate average = 0.7749
	minimum = 0.754667 (at node 243)
	maximum = 0.794667 (at node 132)
Accepted packet rate average = 0.76868
	minimum = 0.731667 (at node 53)
	maximum = 0.821333 (at node 225)
Injected flit rate average = 0.7749
	minimum = 0.754667 (at node 243)
	maximum = 0.794667 (at node 132)
Accepted flit rate average= 0.76868
	minimum = 0.731667 (at node 53)
	maximum = 0.821333 (at node 225)
Injected packet length average = 1
Accepted packet length average = 1
Total in-flight flits = 36197 (36197 measured)
latency change    = 0.0309291
throughput change = 0.00025917
Class 0:
Packet latency average = 173.793
	minimum = 5
	maximum = 402
Network latency average = 173.793
	minimum = 5
	maximum = 402
Slowest packet = 1288272
Flit latency average = 175.241
	minimum = 5
	maximum = 402
Slowest flit = 1288272
Fragmentation average = 0
	minimum = 0
	maximum = 0
Injected packet rate average = 0.775051
	minimum = 0.754 (at node 243)
	maximum = 0.79925 (at node 132)
Accepted packet rate average = 0.769575
	minimum = 0.7325 (at node 55)
	maximum = 0.812 (at node 225)
Injected flit rate average = 0.775051
	minimum = 0.754 (at node 243)
	maximum = 0.79925 (at node 132)
Accepted flit rate average= 0.769575
	minimum = 0.7325 (at node 55)
	maximum = 0.812 (at node 225)
Injected packet length average = 1
Accepted packet length average = 1
Total in-flight flits = 37027 (37027 measured)
latency change    = 0.0216979
throughput change = 0.00116364
Class 0:
Packet latency average = 176.999
	minimum = 5
	maximum = 472
Network latency average = 176.999
	minimum = 5
	maximum = 472
Slowest packet = 1462435
Flit latency average = 178.055
	minimum = 5
	maximum = 472
Slowest flit = 1462435
Fragmentation average = 0
	minimum = 0
	maximum = 0
Injected packet rate average = 0.775012
	minimum = 0.7584 (at node 34)
	maximum = 0.7924 (at node 67)
Accepted packet rate average = 0.769785
	minimum = 0.7432 (at node 55)
	maximum = 0.8072 (at node 225)
Injected flit rate average = 0.775012
	minimum = 0.7584 (at node 34)
	maximum = 0.7924 (at node 67)
Accepted flit rate average= 0.769785
	minimum = 0.7432 (at node 55)
	maximum = 0.8072 (at node 225)
Injected packet length average = 1
Accepted packet length average = 1
Total in-flight flits = 38110 (38110 measured)
latency change    = 0.01811
throughput change = 0.000272753
Draining all recorded packets ...
Draining remaining packets ...
Time taken is 8783 cycles
====== Overall Traffic Statistics ======
====== Traffic class 0 ======
Packet latency average = 179.528 (1 samples)
	minimum = 5 (1 samples)
	maximum = 472 (1 samples)
Network latency average = 179.528 (1 samples)
	minimum = 5 (1 samples)
	maximum = 472 (1 samples)
Flit latency average = 181.206 (1 samples)
	minimum = 5 (1 samples)
	maximum = 472 (1 samples)
Fragmentation average = 0 (1 samples)
	minimum = 0 (1 samples)
	maximum = 0 (1 samples)
Injected packet rate average = 0.775012 (1 samples)
	minimum = 0.7584 (1 samples)
	maximum = 0.7924 (1 samples)
Accepted packet rate average = 0.769785 (1 samples)
	minimum = 0.7432 (1 samples)
	maximum = 0.8072 (1 samples)
Injected flit rate average = 0.775012 (1 samples)
	minimum = 0.7584 (1 samples)
	maximum = 0.7924 (1 samples)
Accepted flit rate average = 0.769785 (1 samples)
	minimum = 0.7432 (1 samples)
	maximum = 0.8072 (1 samples)
Injected packet size average = 1 (1 samples)
Accepted packet size average = 1 (1 samples)
Hops average = 1.93748 (1 samples)
Total run time 10.8572
