BEGIN Configuration File: ../../../../booksim2/src/examples/flatflyconfig
// $Id$

// Copyright (c) 2007-2015, Trustees of The Leland Stanford Junior University
// All rights reserved.
//
// Redistribution and use in source and binary forms, with or without
// modification, are permitted provided that the following conditions are met:
//
// Redistributions of source code must retain the above copyright notice, this
// list of conditions and the following disclaimer.
// Redistributions in binary form must reproduce the above copyright notice,
// this list of conditions and the following disclaimer in the documentation
// and/or other materials provided with the distribution.
//
// THIS SOFTWARE IS PROVIDED BY THE COPYRIGHT HOLDERS AND CONTRIBUTORS "AS IS"
// AND ANY EXPRESS OR IMPLIED WARRANTIES, INCLUDING, BUT NOT LIMITED TO, THE
// IMPLIED WARRANTIES OF MERCHANTABILITY AND FITNESS FOR A PARTICULAR PURPOSE
// ARE DISCLAIMED. IN NO EVENT SHALL THE COPYRIGHT OWNER OR CONTRIBUTORS BE
// LIABLE FOR ANY DIRECT, INDIRECT, INCIDENTAL, SPECIAL, EXEMPLARY, OR
// CONSEQUENTIAL DAMAGES (INCLUDING, BUT NOT LIMITED TO, PROCUREMENT OF
// SUBSTITUTE GOODS OR SERVICES; LOSS OF USE, DATA, OR PROFITS; OR BUSINESS
// INTERRUPTION) HOWEVER CAUSED AND ON ANY THEORY OF LIABILITY, WHETHER IN
// CONTRACT, STRICT LIABILITY, OR TORT (INCLUDING NEGLIGENCE OR OTHERWISE)
// ARISING IN ANY WAY OUT OF THE USE OF THIS SOFTWARE, EVEN IF ADVISED OF THE
// POSSIBILITY OF SUCH DAMAGE.

//A flattened butterfly configurate file with many tweaks from the
//default settings. 


// Flow control
// Total number of VCs must match the above assignments
num_vcs     = 2;
vc_buf_size = 128;

wait_for_tail_credit = 0;

//
// Router architectureq
//
vc_allocator = islip; 
sw_allocator = islip;
alloc_iters  = 3;

credit_delay   = 0;
routing_delay  = 1;
vc_alloc_delay = 1;
sw_alloc_delay = 1;
st_final_delay = 1;

input_speedup     = 1;
output_speedup    = 1;
internal_speedup  = 1.6;

//
// Traffic
//

warmup_periods = 3;

sample_period  = 1000;  

sim_count          = 1;

traffic       = uniform;


// Flatfly 
//
// #node = k^(n+1)
//
// x, y, specifies the arrangement of routers in x and y dim
// xr, yr specifiies the arayment of clients in a router
//
topology = flatfly;
subnets = 1;

c  = 6;
k  = 6;
n  = 2;

x  = 6;
y  = 6;
xr = 6;
yr = 1;

use_noc_latency = 0;

//
// Routing
//

routing_function = ran_min;

//1: batch mode, 0: injection mode
use_read_write = 0;

//for injection mode
packet_size = 1;
injection_rate = 0.1;

//for batch mode
read_request_size=1;
write_request_size=1;
read_reply_size=1;
write_reply_size=1;

read_request_begin_vc  = 0;
read_request_end_vc    = 3;
write_reply_begin_vc   = 4;
write_reply_end_vc     = 7;
read_reply_begin_vc    = 4;
read_reply_end_vc      = 7;
write_request_begin_vc = 0;
write_request_end_vc   = 3;

//latency: drains all packet, throughput:no drain?
sim_type = latency;

END Configuration File: ../../../../booksim2/src/examples/flatflyconfig
OVERRIDE Parameter: sim_type=latency
OVERRIDE Parameter: traffic=uniform
OVERRIDE Parameter: injection_rate={0.6}
 Flat Bufferfly 
 k = 6 n = 2 c = 6
 each switch - total radix =  16
 # of switches = 36
 # of channels = 360
 # of nodes ( size of network ) = 216
Class 0:
Packet latency average = 96.8389
	minimum = 5
	maximum = 156
Network latency average = 96.8389
	minimum = 5
	maximum = 156
Slowest packet = 56303
Flit latency average = 96.8389
	minimum = 5
	maximum = 156
Slowest flit = 56303
Fragmentation average = 0
	minimum = 0
	maximum = 0
Injected packet rate average = 0.599727
	minimum = 0.564 (at node 99)
	maximum = 0.644 (at node 162)
Accepted packet rate average = 0.541468
	minimum = 0.484 (at node 30)
	maximum = 0.604 (at node 34)
Injected flit rate average = 0.599727
	minimum = 0.564 (at node 99)
	maximum = 0.644 (at node 162)
Accepted flit rate average= 0.541468
	minimum = 0.484 (at node 30)
	maximum = 0.604 (at node 34)
Injected packet length average = 1
Accepted packet length average = 1
Total in-flight flits = 12584 (0 measured)
latency change    = 1
throughput change = 1
Class 0:
Packet latency average = 97.176
	minimum = 5
	maximum = 156
Network latency average = 97.176
	minimum = 5
	maximum = 156
Slowest packet = 56303
Flit latency average = 97.176
	minimum = 5
	maximum = 156
Slowest flit = 56303
Fragmentation average = 0
	minimum = 0
	maximum = 0
Injected packet rate average = 0.599706
	minimum = 0.57 (at node 99)
	maximum = 0.6265 (at node 126)
Accepted packet rate average = 0.570532
	minimum = 0.5295 (at node 8)
	maximum = 0.628 (at node 34)
Injected flit rate average = 0.599706
	minimum = 0.57 (at node 99)
	maximum = 0.6265 (at node 126)
Accepted flit rate average= 0.570532
	minimum = 0.5295 (at node 8)
	maximum = 0.628 (at node 34)
Injected packet length average = 1
Accepted packet length average = 1
Total in-flight flits = 12603 (0 measured)
latency change    = 0.00346985
throughput change = 0.0509433
Class 0:
Packet latency average = 97.6562
	minimum = 5
	maximum = 151
Network latency average = 97.6562
	minimum = 5
	maximum = 151
Slowest packet = 315557
Flit latency average = 97.6562
	minimum = 5
	maximum = 151
Slowest flit = 315557
Fragmentation average = 0
	minimum = 0
	maximum = 0
Injected packet rate average = 0.599616
	minimum = 0.556 (at node 210)
	maximum = 0.662 (at node 168)
Accepted packet rate average = 0.599625
	minimum = 0.536 (at node 196)
	maximum = 0.664 (at node 60)
Injected flit rate average = 0.599616
	minimum = 0.556 (at node 210)
	maximum = 0.662 (at node 168)
Accepted flit rate average= 0.599625
	minimum = 0.536 (at node 196)
	maximum = 0.664 (at node 60)
Injected packet length average = 1
Accepted packet length average = 1
Total in-flight flits = 12601 (0 measured)
latency change    = 0.00491703
throughput change = 0.048518
Warmed up ...Time used is 3000 cycles
Class 0:
Packet latency average = 96.7387
	minimum = 5
	maximum = 152
Network latency average = 96.7387
	minimum = 5
	maximum = 152
Slowest packet = 410531
Flit latency average = 97.6676
	minimum = 5
	maximum = 152
Slowest flit = 410531
Fragmentation average = 0
	minimum = 0
	maximum = 0
Injected packet rate average = 0.600713
	minimum = 0.557 (at node 58)
	maximum = 0.642 (at node 19)
Accepted packet rate average = 0.600681
	minimum = 0.536 (at node 154)
	maximum = 0.661 (at node 183)
Injected flit rate average = 0.600713
	minimum = 0.557 (at node 58)
	maximum = 0.642 (at node 19)
Accepted flit rate average= 0.600681
	minimum = 0.536 (at node 154)
	maximum = 0.661 (at node 183)
Injected packet length average = 1
Accepted packet length average = 1
Total in-flight flits = 12608 (12608 measured)
latency change    = 0.00948405
throughput change = 0.00175727
Class 0:
Packet latency average = 97.153
	minimum = 5
	maximum = 152
Network latency average = 97.153
	minimum = 5
	maximum = 152
Slowest packet = 410531
Flit latency average = 97.5976
	minimum = 5
	maximum = 152
Slowest flit = 410531
Fragmentation average = 0
	minimum = 0
	maximum = 0
Injected packet rate average = 0.600484
	minimum = 0.5745 (at node 57)
	maximum = 0.6335 (at node 165)
Accepted packet rate average = 0.600229
	minimum = 0.5445 (at node 179)
	maximum = 0.6375 (at node 109)
Injected flit rate average = 0.600484
	minimum = 0.5745 (at node 57)
	maximum = 0.6335 (at node 165)
Accepted flit rate average= 0.600229
	minimum = 0.5445 (at node 179)
	maximum = 0.6375 (at node 109)
Injected packet length average = 1
Accepted packet length average = 1
Total in-flight flits = 12711 (12711 measured)
latency change    = 0.00426379
throughput change = 0.000752028
Class 0:
Packet latency average = 97.2983
	minimum = 5
	maximum = 152
Network latency average = 97.2983
	minimum = 5
	maximum = 152
Slowest packet = 410531
Flit latency average = 97.5902
	minimum = 5
	maximum = 152
Slowest flit = 410531
Fragmentation average = 0
	minimum = 0
	maximum = 0
Injected packet rate average = 0.599767
	minimum = 0.58 (at node 66)
	maximum = 0.627 (at node 129)
Accepted packet rate average = 0.599923
	minimum = 0.554667 (at node 179)
	maximum = 0.642333 (at node 92)
Injected flit rate average = 0.599767
	minimum = 0.58 (at node 66)
	maximum = 0.627 (at node 129)
Accepted flit rate average= 0.599923
	minimum = 0.554667 (at node 179)
	maximum = 0.642333 (at node 92)
Injected packet length average = 1
Accepted packet length average = 1
Total in-flight flits = 12500 (12500 measured)
latency change    = 0.00149402
throughput change = 0.000510611
Draining all recorded packets ...
Draining remaining packets ...
Time taken is 6301 cycles
====== Overall Traffic Statistics ======
====== Traffic class 0 ======
Packet latency average = 97.5742 (1 samples)
	minimum = 5 (1 samples)
	maximum = 152 (1 samples)
Network latency average = 97.5742 (1 samples)
	minimum = 5 (1 samples)
	maximum = 152 (1 samples)
Flit latency average = 97.8273 (1 samples)
	minimum = 5 (1 samples)
	maximum = 152 (1 samples)
Fragmentation average = 0 (1 samples)
	minimum = 0 (1 samples)
	maximum = 0 (1 samples)
Injected packet rate average = 0.599767 (1 samples)
	minimum = 0.58 (1 samples)
	maximum = 0.627 (1 samples)
Accepted packet rate average = 0.599923 (1 samples)
	minimum = 0.554667 (1 samples)
	maximum = 0.642333 (1 samples)
Injected flit rate average = 0.599767 (1 samples)
	minimum = 0.58 (1 samples)
	maximum = 0.627 (1 samples)
Accepted flit rate average = 0.599923 (1 samples)
	minimum = 0.554667 (1 samples)
	maximum = 0.642333 (1 samples)
Injected packet size average = 1 (1 samples)
Accepted packet size average = 1 (1 samples)
Hops average = 2.66569 (1 samples)
Total run time 6.20667
