BEGIN Configuration File: ../../../../booksim2/src/examples/flatflyconfig
// $Id$

// Copyright (c) 2007-2015, Trustees of The Leland Stanford Junior University
// All rights reserved.
//
// Redistribution and use in source and binary forms, with or without
// modification, are permitted provided that the following conditions are met:
//
// Redistributions of source code must retain the above copyright notice, this
// list of conditions and the following disclaimer.
// Redistributions in binary form must reproduce the above copyright notice,
// this list of conditions and the following disclaimer in the documentation
// and/or other materials provided with the distribution.
//
// THIS SOFTWARE IS PROVIDED BY THE COPYRIGHT HOLDERS AND CONTRIBUTORS "AS IS"
// AND ANY EXPRESS OR IMPLIED WARRANTIES, INCLUDING, BUT NOT LIMITED TO, THE
// IMPLIED WARRANTIES OF MERCHANTABILITY AND FITNESS FOR A PARTICULAR PURPOSE
// ARE DISCLAIMED. IN NO EVENT SHALL THE COPYRIGHT OWNER OR CONTRIBUTORS BE
// LIABLE FOR ANY DIRECT, INDIRECT, INCIDENTAL, SPECIAL, EXEMPLARY, OR
// CONSEQUENTIAL DAMAGES (INCLUDING, BUT NOT LIMITED TO, PROCUREMENT OF
// SUBSTITUTE GOODS OR SERVICES; LOSS OF USE, DATA, OR PROFITS; OR BUSINESS
// INTERRUPTION) HOWEVER CAUSED AND ON ANY THEORY OF LIABILITY, WHETHER IN
// CONTRACT, STRICT LIABILITY, OR TORT (INCLUDING NEGLIGENCE OR OTHERWISE)
// ARISING IN ANY WAY OUT OF THE USE OF THIS SOFTWARE, EVEN IF ADVISED OF THE
// POSSIBILITY OF SUCH DAMAGE.

//A flattened butterfly configurate file with many tweaks from the
//default settings. 


// Flow control
// Total number of VCs must match the above assignments
num_vcs     = 2;
vc_buf_size = 128;

wait_for_tail_credit = 0;

//
// Router architectureq
//
vc_allocator = islip; 
sw_allocator = islip;
alloc_iters  = 3;

credit_delay   = 0;
routing_delay  = 1;
vc_alloc_delay = 1;
sw_alloc_delay = 1;
st_final_delay = 1;

input_speedup     = 1;
output_speedup    = 1;
internal_speedup  = 1.6;

//
// Traffic
//

warmup_periods = 3;

sample_period  = 1000;  

sim_count          = 1;

traffic       = uniform;


// Flatfly 
//
// #node = k^(n+1)
//
// x, y, specifies the arrangement of routers in x and y dim
// xr, yr specifiies the arayment of clients in a router
//
topology = flatfly;
subnets = 1;

c  = 6;
k  = 6;
n  = 2;

x  = 6;
y  = 6;
xr = 6;
yr = 1;

use_noc_latency = 0;

//
// Routing
//

routing_function = ran_min;

//1: batch mode, 0: injection mode
use_read_write = 0;

//for injection mode
packet_size = 1;
injection_rate = 0.1;

//for batch mode
read_request_size=1;
write_request_size=1;
read_reply_size=1;
write_reply_size=1;

read_request_begin_vc  = 0;
read_request_end_vc    = 3;
write_reply_begin_vc   = 4;
write_reply_end_vc     = 7;
read_reply_begin_vc    = 4;
read_reply_end_vc      = 7;
write_request_begin_vc = 0;
write_request_end_vc   = 3;

//latency: drains all packet, throughput:no drain?
sim_type = latency;

END Configuration File: ../../../../booksim2/src/examples/flatflyconfig
OVERRIDE Parameter: sim_type=latency
OVERRIDE Parameter: traffic=uniform
OVERRIDE Parameter: injection_rate={0.225}
 Flat Bufferfly 
 k = 6 n = 2 c = 6
 each switch - total radix =  16
 # of switches = 36
 # of channels = 360
 # of nodes ( size of network ) = 216
Class 0:
Packet latency average = 93.628
	minimum = 5
	maximum = 118
Network latency average = 93.628
	minimum = 5
	maximum = 118
Slowest packet = 17993
Flit latency average = 93.628
	minimum = 5
	maximum = 118
Slowest flit = 17993
Fragmentation average = 0
	minimum = 0
	maximum = 0
Injected packet rate average = 0.224218
	minimum = 0.196 (at node 38)
	maximum = 0.267 (at node 82)
Accepted packet rate average = 0.202838
	minimum = 0.172 (at node 24)
	maximum = 0.24 (at node 106)
Injected flit rate average = 0.224218
	minimum = 0.196 (at node 38)
	maximum = 0.267 (at node 82)
Accepted flit rate average= 0.202838
	minimum = 0.172 (at node 24)
	maximum = 0.24 (at node 106)
Injected packet length average = 1
Accepted packet length average = 1
Total in-flight flits = 4618 (0 measured)
latency change    = 1
throughput change = 1
Class 0:
Packet latency average = 94.0222
	minimum = 5
	maximum = 120
Network latency average = 94.0222
	minimum = 5
	maximum = 120
Slowest packet = 76618
Flit latency average = 94.0222
	minimum = 5
	maximum = 120
Slowest flit = 76618
Fragmentation average = 0
	minimum = 0
	maximum = 0
Injected packet rate average = 0.224338
	minimum = 0.2015 (at node 121)
	maximum = 0.2575 (at node 82)
Accepted packet rate average = 0.21384
	minimum = 0.193 (at node 215)
	maximum = 0.243 (at node 34)
Injected flit rate average = 0.224338
	minimum = 0.2015 (at node 121)
	maximum = 0.2575 (at node 82)
Accepted flit rate average= 0.21384
	minimum = 0.193 (at node 215)
	maximum = 0.243 (at node 34)
Injected packet length average = 1
Accepted packet length average = 1
Total in-flight flits = 4535 (0 measured)
latency change    = 0.004193
throughput change = 0.0514511
Class 0:
Packet latency average = 94.237
	minimum = 5
	maximum = 120
Network latency average = 94.237
	minimum = 5
	maximum = 120
Slowest packet = 117167
Flit latency average = 94.237
	minimum = 5
	maximum = 120
Slowest flit = 117167
Fragmentation average = 0
	minimum = 0
	maximum = 0
Injected packet rate average = 0.225949
	minimum = 0.192 (at node 111)
	maximum = 0.265 (at node 24)
Accepted packet rate average = 0.225505
	minimum = 0.187 (at node 106)
	maximum = 0.269 (at node 158)
Injected flit rate average = 0.225949
	minimum = 0.192 (at node 111)
	maximum = 0.265 (at node 24)
Accepted flit rate average= 0.225505
	minimum = 0.187 (at node 106)
	maximum = 0.269 (at node 158)
Injected packet length average = 1
Accepted packet length average = 1
Total in-flight flits = 4631 (0 measured)
latency change    = 0.00227865
throughput change = 0.0517256
Warmed up ...Time used is 3000 cycles
Class 0:
Packet latency average = 93.5298
	minimum = 5
	maximum = 120
Network latency average = 93.5298
	minimum = 5
	maximum = 120
Slowest packet = 177553
Flit latency average = 94.4269
	minimum = 5
	maximum = 120
Slowest flit = 177553
Fragmentation average = 0
	minimum = 0
	maximum = 0
Injected packet rate average = 0.224361
	minimum = 0.182 (at node 33)
	maximum = 0.262 (at node 70)
Accepted packet rate average = 0.224454
	minimum = 0.183 (at node 27)
	maximum = 0.263 (at node 188)
Injected flit rate average = 0.224361
	minimum = 0.182 (at node 33)
	maximum = 0.262 (at node 70)
Accepted flit rate average= 0.224454
	minimum = 0.183 (at node 27)
	maximum = 0.263 (at node 188)
Injected packet length average = 1
Accepted packet length average = 1
Total in-flight flits = 4611 (4611 measured)
latency change    = 0.00756057
throughput change = 0.00468215
Class 0:
Packet latency average = 94.0667
	minimum = 5
	maximum = 120
Network latency average = 94.0667
	minimum = 5
	maximum = 120
Slowest packet = 177553
Flit latency average = 94.4891
	minimum = 5
	maximum = 120
Slowest flit = 177553
Fragmentation average = 0
	minimum = 0
	maximum = 0
Injected packet rate average = 0.224653
	minimum = 0.1975 (at node 33)
	maximum = 0.2565 (at node 124)
Accepted packet rate average = 0.224718
	minimum = 0.195 (at node 27)
	maximum = 0.2575 (at node 4)
Injected flit rate average = 0.224653
	minimum = 0.1975 (at node 33)
	maximum = 0.2565 (at node 124)
Accepted flit rate average= 0.224718
	minimum = 0.195 (at node 27)
	maximum = 0.2575 (at node 4)
Injected packet length average = 1
Accepted packet length average = 1
Total in-flight flits = 4603 (4603 measured)
latency change    = 0.00570755
throughput change = 0.00117431
Class 0:
Packet latency average = 94.2373
	minimum = 5
	maximum = 120
Network latency average = 94.2373
	minimum = 5
	maximum = 120
Slowest packet = 177553
Flit latency average = 94.5136
	minimum = 5
	maximum = 120
Slowest flit = 177553
Fragmentation average = 0
	minimum = 0
	maximum = 0
Injected packet rate average = 0.224414
	minimum = 0.202333 (at node 5)
	maximum = 0.244333 (at node 129)
Accepted packet rate average = 0.22461
	minimum = 0.204 (at node 96)
	maximum = 0.252 (at node 76)
Injected flit rate average = 0.224414
	minimum = 0.202333 (at node 5)
	maximum = 0.244333 (at node 129)
Accepted flit rate average= 0.22461
	minimum = 0.204 (at node 96)
	maximum = 0.252 (at node 76)
Injected packet length average = 1
Accepted packet length average = 1
Total in-flight flits = 4504 (4504 measured)
latency change    = 0.00180975
throughput change = 0.000480944
Draining all recorded packets ...
Draining remaining packets ...
Time taken is 6277 cycles
====== Overall Traffic Statistics ======
====== Traffic class 0 ======
Packet latency average = 94.4938 (1 samples)
	minimum = 5 (1 samples)
	maximum = 120 (1 samples)
Network latency average = 94.4938 (1 samples)
	minimum = 5 (1 samples)
	maximum = 120 (1 samples)
Flit latency average = 94.7241 (1 samples)
	minimum = 5 (1 samples)
	maximum = 120 (1 samples)
Fragmentation average = 0 (1 samples)
	minimum = 0 (1 samples)
	maximum = 0 (1 samples)
Injected packet rate average = 0.224414 (1 samples)
	minimum = 0.202333 (1 samples)
	maximum = 0.244333 (1 samples)
Accepted packet rate average = 0.22461 (1 samples)
	minimum = 0.204 (1 samples)
	maximum = 0.252 (1 samples)
Injected flit rate average = 0.224414 (1 samples)
	minimum = 0.202333 (1 samples)
	maximum = 0.244333 (1 samples)
Accepted flit rate average = 0.22461 (1 samples)
	minimum = 0.204 (1 samples)
	maximum = 0.252 (1 samples)
Injected packet size average = 1 (1 samples)
Accepted packet size average = 1 (1 samples)
Hops average = 2.66815 (1 samples)
Total run time 2.53464
