BEGIN Configuration File: ../../../../booksim2/src/examples/flatflyconfig
// $Id$

// Copyright (c) 2007-2015, Trustees of The Leland Stanford Junior University
// All rights reserved.
//
// Redistribution and use in source and binary forms, with or without
// modification, are permitted provided that the following conditions are met:
//
// Redistributions of source code must retain the above copyright notice, this
// list of conditions and the following disclaimer.
// Redistributions in binary form must reproduce the above copyright notice,
// this list of conditions and the following disclaimer in the documentation
// and/or other materials provided with the distribution.
//
// THIS SOFTWARE IS PROVIDED BY THE COPYRIGHT HOLDERS AND CONTRIBUTORS "AS IS"
// AND ANY EXPRESS OR IMPLIED WARRANTIES, INCLUDING, BUT NOT LIMITED TO, THE
// IMPLIED WARRANTIES OF MERCHANTABILITY AND FITNESS FOR A PARTICULAR PURPOSE
// ARE DISCLAIMED. IN NO EVENT SHALL THE COPYRIGHT OWNER OR CONTRIBUTORS BE
// LIABLE FOR ANY DIRECT, INDIRECT, INCIDENTAL, SPECIAL, EXEMPLARY, OR
// CONSEQUENTIAL DAMAGES (INCLUDING, BUT NOT LIMITED TO, PROCUREMENT OF
// SUBSTITUTE GOODS OR SERVICES; LOSS OF USE, DATA, OR PROFITS; OR BUSINESS
// INTERRUPTION) HOWEVER CAUSED AND ON ANY THEORY OF LIABILITY, WHETHER IN
// CONTRACT, STRICT LIABILITY, OR TORT (INCLUDING NEGLIGENCE OR OTHERWISE)
// ARISING IN ANY WAY OUT OF THE USE OF THIS SOFTWARE, EVEN IF ADVISED OF THE
// POSSIBILITY OF SUCH DAMAGE.

//A flattened butterfly configurate file with many tweaks from the
//default settings. 


// Flow control
// Total number of VCs must match the above assignments
num_vcs     = 2;
vc_buf_size = 128;

wait_for_tail_credit = 0;

//
// Router architectureq
//
vc_allocator = islip; 
sw_allocator = islip;
alloc_iters  = 3;

credit_delay   = 0;
routing_delay  = 1;
vc_alloc_delay = 1;
sw_alloc_delay = 1;
st_final_delay = 1;

input_speedup     = 1;
output_speedup    = 1;
internal_speedup  = 1.6;

//
// Traffic
//

warmup_periods = 3;

sample_period  = 1000;  

sim_count          = 1;

traffic       = uniform;


// Flatfly 
//
// #node = k^(n+1)
//
// x, y, specifies the arrangement of routers in x and y dim
// xr, yr specifiies the arayment of clients in a router
//
topology = flatfly;
subnets = 1;

c  = 6;
k  = 6;
n  = 2;

x  = 6;
y  = 6;
xr = 6;
yr = 1;

use_noc_latency = 0;

//
// Routing
//

routing_function = ran_min;

//1: batch mode, 0: injection mode
use_read_write = 0;

//for injection mode
packet_size = 1;
injection_rate = 0.1;

//for batch mode
read_request_size=1;
write_request_size=1;
read_reply_size=1;
write_reply_size=1;

read_request_begin_vc  = 0;
read_request_end_vc    = 3;
write_reply_begin_vc   = 4;
write_reply_end_vc     = 7;
read_reply_begin_vc    = 4;
read_reply_end_vc      = 7;
write_request_begin_vc = 0;
write_request_end_vc   = 3;

//latency: drains all packet, throughput:no drain?
sim_type = latency;

END Configuration File: ../../../../booksim2/src/examples/flatflyconfig
OVERRIDE Parameter: sim_type=latency
OVERRIDE Parameter: traffic=uniform
OVERRIDE Parameter: injection_rate={0.925}
 Flat Bufferfly 
 k = 6 n = 2 c = 6
 each switch - total radix =  16
 # of switches = 36
 # of channels = 360
 # of nodes ( size of network ) = 216
Class 0:
Packet latency average = 164.015
	minimum = 5
	maximum = 420
Network latency average = 164.015
	minimum = 5
	maximum = 420
Slowest packet = 114202
Flit latency average = 164.015
	minimum = 5
	maximum = 420
Slowest flit = 114202
Fragmentation average = 0
	minimum = 0
	maximum = 0
Injected packet rate average = 0.925056
	minimum = 0.902 (at node 116)
	maximum = 0.952 (at node 78)
Accepted packet rate average = 0.70412
	minimum = 0.631 (at node 30)
	maximum = 0.774 (at node 34)
Injected flit rate average = 0.925056
	minimum = 0.902 (at node 116)
	maximum = 0.952 (at node 78)
Accepted flit rate average= 0.70412
	minimum = 0.631 (at node 30)
	maximum = 0.774 (at node 34)
Injected packet length average = 1
Accepted packet length average = 1
Total in-flight flits = 47722 (0 measured)
latency change    = 1
throughput change = 1
Class 0:
Packet latency average = 242.165
	minimum = 5
	maximum = 663
Network latency average = 242.165
	minimum = 5
	maximum = 663
Slowest packet = 266353
Flit latency average = 242.165
	minimum = 5
	maximum = 663
Slowest flit = 266353
Fragmentation average = 0
	minimum = 0
	maximum = 0
Injected packet rate average = 0.924843
	minimum = 0.91 (at node 145)
	maximum = 0.9425 (at node 41)
Accepted packet rate average = 0.742019
	minimum = 0.699 (at node 95)
	maximum = 0.81 (at node 34)
Injected flit rate average = 0.924843
	minimum = 0.91 (at node 145)
	maximum = 0.9425 (at node 41)
Accepted flit rate average= 0.742019
	minimum = 0.699 (at node 95)
	maximum = 0.81 (at node 34)
Injected packet length average = 1
Accepted packet length average = 1
Total in-flight flits = 78980 (0 measured)
latency change    = 0.322714
throughput change = 0.0510744
Class 0:
Packet latency average = 473.156
	minimum = 108
	maximum = 833
Network latency average = 472.958
	minimum = 108
	maximum = 833
Slowest packet = 428951
Flit latency average = 472.958
	minimum = 108
	maximum = 833
Slowest flit = 428951
Fragmentation average = 0
	minimum = 0
	maximum = 0
Injected packet rate average = 0.874949
	minimum = 0.799 (at node 78)
	maximum = 0.924 (at node 143)
Accepted packet rate average = 0.778824
	minimum = 0.679 (at node 167)
	maximum = 0.849 (at node 83)
Injected flit rate average = 0.874949
	minimum = 0.799 (at node 78)
	maximum = 0.924 (at node 143)
Accepted flit rate average= 0.778824
	minimum = 0.679 (at node 167)
	maximum = 0.849 (at node 83)
Injected packet length average = 1
Accepted packet length average = 1
Total in-flight flits = 99815 (0 measured)
latency change    = 0.488192
throughput change = 0.0472579
Warmed up ...Time used is 3000 cycles
Class 0:
Packet latency average = 630.913
	minimum = 289
	maximum = 987
Network latency average = 541.78
	minimum = 289
	maximum = 878
Slowest packet = 589081
Flit latency average = 582.38
	minimum = 242
	maximum = 893
Slowest flit = 526691
Fragmentation average = 0
	minimum = 0
	maximum = 0
Injected packet rate average = 0.784181
	minimum = 0.75 (at node 161)
	maximum = 0.813 (at node 9)
Accepted packet rate average = 0.782532
	minimum = 0.703 (at node 179)
	maximum = 0.854 (at node 172)
Injected flit rate average = 0.784181
	minimum = 0.75 (at node 161)
	maximum = 0.813 (at node 9)
Accepted flit rate average= 0.782532
	minimum = 0.703 (at node 179)
	maximum = 0.854 (at node 172)
Injected packet length average = 1
Accepted packet length average = 1
Total in-flight flits = 100170 (100170 measured)
latency change    = 0.250045
throughput change = 0.00473889
Average latency for class 0 exceeded 500 cycles. Aborting simulation.
Too many sample periods needed to converge
Simulation unstable, ending ...
Total run time 6.08039
