BEGIN Configuration File: ../../../../booksim2/src/examples/flatflyconfig
// $Id$

// Copyright (c) 2007-2015, Trustees of The Leland Stanford Junior University
// All rights reserved.
//
// Redistribution and use in source and binary forms, with or without
// modification, are permitted provided that the following conditions are met:
//
// Redistributions of source code must retain the above copyright notice, this
// list of conditions and the following disclaimer.
// Redistributions in binary form must reproduce the above copyright notice,
// this list of conditions and the following disclaimer in the documentation
// and/or other materials provided with the distribution.
//
// THIS SOFTWARE IS PROVIDED BY THE COPYRIGHT HOLDERS AND CONTRIBUTORS "AS IS"
// AND ANY EXPRESS OR IMPLIED WARRANTIES, INCLUDING, BUT NOT LIMITED TO, THE
// IMPLIED WARRANTIES OF MERCHANTABILITY AND FITNESS FOR A PARTICULAR PURPOSE
// ARE DISCLAIMED. IN NO EVENT SHALL THE COPYRIGHT OWNER OR CONTRIBUTORS BE
// LIABLE FOR ANY DIRECT, INDIRECT, INCIDENTAL, SPECIAL, EXEMPLARY, OR
// CONSEQUENTIAL DAMAGES (INCLUDING, BUT NOT LIMITED TO, PROCUREMENT OF
// SUBSTITUTE GOODS OR SERVICES; LOSS OF USE, DATA, OR PROFITS; OR BUSINESS
// INTERRUPTION) HOWEVER CAUSED AND ON ANY THEORY OF LIABILITY, WHETHER IN
// CONTRACT, STRICT LIABILITY, OR TORT (INCLUDING NEGLIGENCE OR OTHERWISE)
// ARISING IN ANY WAY OUT OF THE USE OF THIS SOFTWARE, EVEN IF ADVISED OF THE
// POSSIBILITY OF SUCH DAMAGE.

//A flattened butterfly configurate file with many tweaks from the
//default settings. 


// Flow control
// Total number of VCs must match the above assignments
num_vcs     = 2;
vc_buf_size = 128;

wait_for_tail_credit = 0;

//
// Router architectureq
//
vc_allocator = islip; 
sw_allocator = islip;
alloc_iters  = 3;

credit_delay   = 0;
routing_delay  = 1;
vc_alloc_delay = 1;
sw_alloc_delay = 1;
st_final_delay = 1;

input_speedup     = 1;
output_speedup    = 1;
internal_speedup  = 1.6;

//
// Traffic
//

warmup_periods = 3;

sample_period  = 1000;  

sim_count          = 1;

traffic       = uniform;


// Flatfly 
//
// #node = k^(n+1)
//
// x, y, specifies the arrangement of routers in x and y dim
// xr, yr specifiies the arayment of clients in a router
//
topology = flatfly;
subnets = 1;

c  = 6;
k  = 6;
n  = 2;

x  = 6;
y  = 6;
xr = 6;
yr = 1;

use_noc_latency = 0;

//
// Routing
//

routing_function = ran_min;

//1: batch mode, 0: injection mode
use_read_write = 0;

//for injection mode
packet_size = 1;
injection_rate = 0.1;

//for batch mode
read_request_size=1;
write_request_size=1;
read_reply_size=1;
write_reply_size=1;

read_request_begin_vc  = 0;
read_request_end_vc    = 3;
write_reply_begin_vc   = 4;
write_reply_end_vc     = 7;
read_reply_begin_vc    = 4;
read_reply_end_vc      = 7;
write_request_begin_vc = 0;
write_request_end_vc   = 3;

//latency: drains all packet, throughput:no drain?
sim_type = latency;

END Configuration File: ../../../../booksim2/src/examples/flatflyconfig
OVERRIDE Parameter: sim_type=latency
OVERRIDE Parameter: traffic=uniform
OVERRIDE Parameter: injection_rate={0.275}
 Flat Bufferfly 
 k = 6 n = 2 c = 6
 each switch - total radix =  16
 # of switches = 36
 # of channels = 360
 # of nodes ( size of network ) = 216
Class 0:
Packet latency average = 93.6946
	minimum = 5
	maximum = 119
Network latency average = 93.6946
	minimum = 5
	maximum = 119
Slowest packet = 29214
Flit latency average = 93.6946
	minimum = 5
	maximum = 119
Slowest flit = 29214
Fragmentation average = 0
	minimum = 0
	maximum = 0
Injected packet rate average = 0.274426
	minimum = 0.244 (at node 1)
	maximum = 0.313 (at node 82)
Accepted packet rate average = 0.248398
	minimum = 0.208 (at node 114)
	maximum = 0.297 (at node 34)
Injected flit rate average = 0.274426
	minimum = 0.244 (at node 1)
	maximum = 0.313 (at node 82)
Accepted flit rate average= 0.248398
	minimum = 0.208 (at node 114)
	maximum = 0.297 (at node 34)
Injected packet length average = 1
Accepted packet length average = 1
Total in-flight flits = 5622 (0 measured)
latency change    = 1
throughput change = 1
Class 0:
Packet latency average = 94.1758
	minimum = 5
	maximum = 120
Network latency average = 94.1758
	minimum = 5
	maximum = 120
Slowest packet = 78656
Flit latency average = 94.1758
	minimum = 5
	maximum = 120
Slowest flit = 78656
Fragmentation average = 0
	minimum = 0
	maximum = 0
Injected packet rate average = 0.274178
	minimum = 0.2505 (at node 100)
	maximum = 0.3095 (at node 82)
Accepted packet rate average = 0.261257
	minimum = 0.234 (at node 30)
	maximum = 0.2915 (at node 34)
Injected flit rate average = 0.274178
	minimum = 0.2505 (at node 100)
	maximum = 0.3095 (at node 82)
Accepted flit rate average= 0.261257
	minimum = 0.234 (at node 30)
	maximum = 0.2915 (at node 34)
Injected packet length average = 1
Accepted packet length average = 1
Total in-flight flits = 5582 (0 measured)
latency change    = 0.00510919
throughput change = 0.049219
Class 0:
Packet latency average = 94.5096
	minimum = 5
	maximum = 120
Network latency average = 94.5096
	minimum = 5
	maximum = 120
Slowest packet = 167150
Flit latency average = 94.5096
	minimum = 5
	maximum = 120
Slowest flit = 167150
Fragmentation average = 0
	minimum = 0
	maximum = 0
Injected packet rate average = 0.275616
	minimum = 0.239 (at node 214)
	maximum = 0.313 (at node 24)
Accepted packet rate average = 0.275065
	minimum = 0.235 (at node 106)
	maximum = 0.322 (at node 156)
Injected flit rate average = 0.275616
	minimum = 0.239 (at node 214)
	maximum = 0.313 (at node 24)
Accepted flit rate average= 0.275065
	minimum = 0.235 (at node 106)
	maximum = 0.322 (at node 156)
Injected packet length average = 1
Accepted packet length average = 1
Total in-flight flits = 5701 (0 measured)
latency change    = 0.00353189
throughput change = 0.0501986
Warmed up ...Time used is 3000 cycles
Class 0:
Packet latency average = 93.9313
	minimum = 5
	maximum = 121
Network latency average = 93.9313
	minimum = 5
	maximum = 121
Slowest packet = 228977
Flit latency average = 94.7977
	minimum = 5
	maximum = 121
Slowest flit = 228977
Fragmentation average = 0
	minimum = 0
	maximum = 0
Injected packet rate average = 0.274676
	minimum = 0.226 (at node 33)
	maximum = 0.319 (at node 19)
Accepted packet rate average = 0.274944
	minimum = 0.229 (at node 95)
	maximum = 0.325 (at node 94)
Injected flit rate average = 0.274676
	minimum = 0.226 (at node 33)
	maximum = 0.319 (at node 19)
Accepted flit rate average= 0.274944
	minimum = 0.229 (at node 95)
	maximum = 0.325 (at node 94)
Injected packet length average = 1
Accepted packet length average = 1
Total in-flight flits = 5643 (5643 measured)
latency change    = 0.00615592
throughput change = 0.000437799
Class 0:
Packet latency average = 94.2964
	minimum = 5
	maximum = 122
Network latency average = 94.2964
	minimum = 5
	maximum = 122
Slowest packet = 243767
Flit latency average = 94.7119
	minimum = 5
	maximum = 122
Slowest flit = 243767
Fragmentation average = 0
	minimum = 0
	maximum = 0
Injected packet rate average = 0.274977
	minimum = 0.244 (at node 33)
	maximum = 0.3045 (at node 124)
Accepted packet rate average = 0.275025
	minimum = 0.2435 (at node 116)
	maximum = 0.3115 (at node 76)
Injected flit rate average = 0.274977
	minimum = 0.244 (at node 33)
	maximum = 0.3045 (at node 124)
Accepted flit rate average= 0.275025
	minimum = 0.2435 (at node 116)
	maximum = 0.3115 (at node 76)
Injected packet length average = 1
Accepted packet length average = 1
Total in-flight flits = 5680 (5680 measured)
latency change    = 0.00387121
throughput change = 0.000294586
Class 0:
Packet latency average = 94.3717
	minimum = 5
	maximum = 122
Network latency average = 94.3717
	minimum = 5
	maximum = 122
Slowest packet = 243767
Flit latency average = 94.6466
	minimum = 5
	maximum = 122
Slowest flit = 243767
Fragmentation average = 0
	minimum = 0
	maximum = 0
Injected packet rate average = 0.274481
	minimum = 0.248333 (at node 5)
	maximum = 0.294 (at node 129)
Accepted packet rate average = 0.274735
	minimum = 0.247667 (at node 95)
	maximum = 0.299667 (at node 4)
Injected flit rate average = 0.274481
	minimum = 0.248333 (at node 5)
	maximum = 0.294 (at node 129)
Accepted flit rate average= 0.274735
	minimum = 0.247667 (at node 95)
	maximum = 0.299667 (at node 4)
Injected packet length average = 1
Accepted packet length average = 1
Total in-flight flits = 5537 (5537 measured)
latency change    = 0.000797651
throughput change = 0.00105882
Draining all recorded packets ...
Draining remaining packets ...
Time taken is 6278 cycles
====== Overall Traffic Statistics ======
====== Traffic class 0 ======
Packet latency average = 94.6282 (1 samples)
	minimum = 5 (1 samples)
	maximum = 122 (1 samples)
Network latency average = 94.6282 (1 samples)
	minimum = 5 (1 samples)
	maximum = 122 (1 samples)
Flit latency average = 94.8861 (1 samples)
	minimum = 5 (1 samples)
	maximum = 122 (1 samples)
Fragmentation average = 0 (1 samples)
	minimum = 0 (1 samples)
	maximum = 0 (1 samples)
Injected packet rate average = 0.274481 (1 samples)
	minimum = 0.248333 (1 samples)
	maximum = 0.294 (1 samples)
Accepted packet rate average = 0.274735 (1 samples)
	minimum = 0.247667 (1 samples)
	maximum = 0.299667 (1 samples)
Injected flit rate average = 0.274481 (1 samples)
	minimum = 0.248333 (1 samples)
	maximum = 0.294 (1 samples)
Accepted flit rate average = 0.274735 (1 samples)
	minimum = 0.247667 (1 samples)
	maximum = 0.299667 (1 samples)
Injected packet size average = 1 (1 samples)
Accepted packet size average = 1 (1 samples)
Hops average = 2.66698 (1 samples)
Total run time 3.03457
