BEGIN Configuration File: ../../../../booksim2/src/examples/flatflyconfig
// $Id$

// Copyright (c) 2007-2015, Trustees of The Leland Stanford Junior University
// All rights reserved.
//
// Redistribution and use in source and binary forms, with or without
// modification, are permitted provided that the following conditions are met:
//
// Redistributions of source code must retain the above copyright notice, this
// list of conditions and the following disclaimer.
// Redistributions in binary form must reproduce the above copyright notice,
// this list of conditions and the following disclaimer in the documentation
// and/or other materials provided with the distribution.
//
// THIS SOFTWARE IS PROVIDED BY THE COPYRIGHT HOLDERS AND CONTRIBUTORS "AS IS"
// AND ANY EXPRESS OR IMPLIED WARRANTIES, INCLUDING, BUT NOT LIMITED TO, THE
// IMPLIED WARRANTIES OF MERCHANTABILITY AND FITNESS FOR A PARTICULAR PURPOSE
// ARE DISCLAIMED. IN NO EVENT SHALL THE COPYRIGHT OWNER OR CONTRIBUTORS BE
// LIABLE FOR ANY DIRECT, INDIRECT, INCIDENTAL, SPECIAL, EXEMPLARY, OR
// CONSEQUENTIAL DAMAGES (INCLUDING, BUT NOT LIMITED TO, PROCUREMENT OF
// SUBSTITUTE GOODS OR SERVICES; LOSS OF USE, DATA, OR PROFITS; OR BUSINESS
// INTERRUPTION) HOWEVER CAUSED AND ON ANY THEORY OF LIABILITY, WHETHER IN
// CONTRACT, STRICT LIABILITY, OR TORT (INCLUDING NEGLIGENCE OR OTHERWISE)
// ARISING IN ANY WAY OUT OF THE USE OF THIS SOFTWARE, EVEN IF ADVISED OF THE
// POSSIBILITY OF SUCH DAMAGE.

//A flattened butterfly configurate file with many tweaks from the
//default settings. 


// Flow control
// Total number of VCs must match the above assignments
num_vcs     = 2;
vc_buf_size = 128;

wait_for_tail_credit = 0;

//
// Router architectureq
//
vc_allocator = islip; 
sw_allocator = islip;
alloc_iters  = 3;

credit_delay   = 0;
routing_delay  = 1;
vc_alloc_delay = 1;
sw_alloc_delay = 1;
st_final_delay = 1;

input_speedup     = 1;
output_speedup    = 1;
internal_speedup  = 1.6;

//
// Traffic
//

warmup_periods = 3;

sample_period  = 1000;  

sim_count          = 1;

traffic       = uniform;


// Flatfly 
//
// #node = k^(n+1)
//
// x, y, specifies the arrangement of routers in x and y dim
// xr, yr specifiies the arayment of clients in a router
//
topology = flatfly;
subnets = 1;

c  = 6;
k  = 6;
n  = 2;

x  = 6;
y  = 6;
xr = 6;
yr = 1;

use_noc_latency = 0;

//
// Routing
//

routing_function = ran_min;

//1: batch mode, 0: injection mode
use_read_write = 0;

//for injection mode
packet_size = 1;
injection_rate = 0.1;

//for batch mode
read_request_size=1;
write_request_size=1;
read_reply_size=1;
write_reply_size=1;

read_request_begin_vc  = 0;
read_request_end_vc    = 3;
write_reply_begin_vc   = 4;
write_reply_end_vc     = 7;
read_reply_begin_vc    = 4;
read_reply_end_vc      = 7;
write_request_begin_vc = 0;
write_request_end_vc   = 3;

//latency: drains all packet, throughput:no drain?
sim_type = latency;

END Configuration File: ../../../../booksim2/src/examples/flatflyconfig
OVERRIDE Parameter: sim_type=latency
OVERRIDE Parameter: traffic=uniform
OVERRIDE Parameter: injection_rate={0.125}
 Flat Bufferfly 
 k = 6 n = 2 c = 6
 each switch - total radix =  16
 # of switches = 36
 # of channels = 360
 # of nodes ( size of network ) = 216
Class 0:
Packet latency average = 93.3561
	minimum = 5
	maximum = 116
Network latency average = 93.3561
	minimum = 5
	maximum = 116
Slowest packet = 6268
Flit latency average = 93.3561
	minimum = 5
	maximum = 116
Slowest flit = 6268
Fragmentation average = 0
	minimum = 0
	maximum = 0
Injected packet rate average = 0.124699
	minimum = 0.098 (at node 121)
	maximum = 0.156 (at node 128)
Accepted packet rate average = 0.112574
	minimum = 0.084 (at node 24)
	maximum = 0.142 (at node 205)
Injected flit rate average = 0.124699
	minimum = 0.098 (at node 121)
	maximum = 0.156 (at node 128)
Accepted flit rate average= 0.112574
	minimum = 0.084 (at node 24)
	maximum = 0.142 (at node 205)
Injected packet length average = 1
Accepted packet length average = 1
Total in-flight flits = 2619 (0 measured)
latency change    = 1
throughput change = 1
Class 0:
Packet latency average = 93.7129
	minimum = 5
	maximum = 116
Network latency average = 93.7129
	minimum = 5
	maximum = 116
Slowest packet = 6268
Flit latency average = 93.7129
	minimum = 5
	maximum = 116
Slowest flit = 6268
Fragmentation average = 0
	minimum = 0
	maximum = 0
Injected packet rate average = 0.124428
	minimum = 0.102 (at node 1)
	maximum = 0.144 (at node 29)
Accepted packet rate average = 0.118715
	minimum = 0.101 (at node 114)
	maximum = 0.1385 (at node 34)
Injected flit rate average = 0.124428
	minimum = 0.102 (at node 1)
	maximum = 0.144 (at node 29)
Accepted flit rate average= 0.118715
	minimum = 0.101 (at node 114)
	maximum = 0.1385 (at node 34)
Injected packet length average = 1
Accepted packet length average = 1
Total in-flight flits = 2468 (0 measured)
latency change    = 0.00380756
throughput change = 0.0517305
Class 0:
Packet latency average = 94.0069
	minimum = 5
	maximum = 116
Network latency average = 94.0069
	minimum = 5
	maximum = 116
Slowest packet = 61480
Flit latency average = 94.0069
	minimum = 5
	maximum = 116
Slowest flit = 61480
Fragmentation average = 0
	minimum = 0
	maximum = 0
Injected packet rate average = 0.124833
	minimum = 0.087 (at node 210)
	maximum = 0.151 (at node 117)
Accepted packet rate average = 0.124606
	minimum = 0.097 (at node 182)
	maximum = 0.153 (at node 38)
Injected flit rate average = 0.124833
	minimum = 0.087 (at node 210)
	maximum = 0.151 (at node 117)
Accepted flit rate average= 0.124606
	minimum = 0.097 (at node 182)
	maximum = 0.153 (at node 38)
Injected packet length average = 1
Accepted packet length average = 1
Total in-flight flits = 2517 (0 measured)
latency change    = 0.00312777
throughput change = 0.0472785
Warmed up ...Time used is 3000 cycles
Class 0:
Packet latency average = 93.3134
	minimum = 5
	maximum = 116
Network latency average = 93.3134
	minimum = 5
	maximum = 116
Slowest packet = 82609
Flit latency average = 94.1007
	minimum = 5
	maximum = 117
Slowest flit = 77693
Fragmentation average = 0
	minimum = 0
	maximum = 0
Injected packet rate average = 0.125148
	minimum = 0.09 (at node 170)
	maximum = 0.161 (at node 70)
Accepted packet rate average = 0.125093
	minimum = 0.091 (at node 30)
	maximum = 0.155 (at node 214)
Injected flit rate average = 0.125148
	minimum = 0.09 (at node 170)
	maximum = 0.161 (at node 70)
Accepted flit rate average= 0.125093
	minimum = 0.091 (at node 30)
	maximum = 0.155 (at node 214)
Injected packet length average = 1
Accepted packet length average = 1
Total in-flight flits = 2529 (2529 measured)
latency change    = 0.00743216
throughput change = 0.00388601
Class 0:
Packet latency average = 93.7669
	minimum = 5
	maximum = 117
Network latency average = 93.7669
	minimum = 5
	maximum = 117
Slowest packet = 107866
Flit latency average = 94.1393
	minimum = 5
	maximum = 117
Slowest flit = 77693
Fragmentation average = 0
	minimum = 0
	maximum = 0
Injected packet rate average = 0.125255
	minimum = 0.105 (at node 170)
	maximum = 0.1495 (at node 124)
Accepted packet rate average = 0.125132
	minimum = 0.1035 (at node 35)
	maximum = 0.1465 (at node 44)
Injected flit rate average = 0.125255
	minimum = 0.105 (at node 170)
	maximum = 0.1495 (at node 124)
Accepted flit rate average= 0.125132
	minimum = 0.1035 (at node 35)
	maximum = 0.1465 (at node 44)
Injected packet length average = 1
Accepted packet length average = 1
Total in-flight flits = 2570 (2570 measured)
latency change    = 0.00483656
throughput change = 0.000314483
Class 0:
Packet latency average = 93.8842
	minimum = 5
	maximum = 117
Network latency average = 93.8842
	minimum = 5
	maximum = 117
Slowest packet = 107866
Flit latency average = 94.1283
	minimum = 5
	maximum = 117
Slowest flit = 77693
Fragmentation average = 0
	minimum = 0
	maximum = 0
Injected packet rate average = 0.125346
	minimum = 0.108667 (at node 58)
	maximum = 0.142333 (at node 53)
Accepted packet rate average = 0.125383
	minimum = 0.105 (at node 30)
	maximum = 0.144667 (at node 158)
Injected flit rate average = 0.125346
	minimum = 0.108667 (at node 58)
	maximum = 0.142333 (at node 53)
Accepted flit rate average= 0.125383
	minimum = 0.105 (at node 30)
	maximum = 0.144667 (at node 158)
Injected packet length average = 1
Accepted packet length average = 1
Total in-flight flits = 2493 (2493 measured)
latency change    = 0.00124942
throughput change = 0.00200005
Draining all recorded packets ...
Draining remaining packets ...
Time taken is 6272 cycles
====== Overall Traffic Statistics ======
====== Traffic class 0 ======
Packet latency average = 94.1369 (1 samples)
	minimum = 5 (1 samples)
	maximum = 117 (1 samples)
Network latency average = 94.1369 (1 samples)
	minimum = 5 (1 samples)
	maximum = 117 (1 samples)
Flit latency average = 94.3754 (1 samples)
	minimum = 5 (1 samples)
	maximum = 117 (1 samples)
Fragmentation average = 0 (1 samples)
	minimum = 0 (1 samples)
	maximum = 0 (1 samples)
Injected packet rate average = 0.125346 (1 samples)
	minimum = 0.108667 (1 samples)
	maximum = 0.142333 (1 samples)
Accepted packet rate average = 0.125383 (1 samples)
	minimum = 0.105 (1 samples)
	maximum = 0.144667 (1 samples)
Injected flit rate average = 0.125346 (1 samples)
	minimum = 0.108667 (1 samples)
	maximum = 0.142333 (1 samples)
Accepted flit rate average = 0.125383 (1 samples)
	minimum = 0.105 (1 samples)
	maximum = 0.144667 (1 samples)
Injected packet size average = 1 (1 samples)
Accepted packet size average = 1 (1 samples)
Hops average = 2.66768 (1 samples)
Total run time 1.58714
