BEGIN Configuration File: ../../../../booksim2/src/examples/flatflyconfig
// $Id$

// Copyright (c) 2007-2015, Trustees of The Leland Stanford Junior University
// All rights reserved.
//
// Redistribution and use in source and binary forms, with or without
// modification, are permitted provided that the following conditions are met:
//
// Redistributions of source code must retain the above copyright notice, this
// list of conditions and the following disclaimer.
// Redistributions in binary form must reproduce the above copyright notice,
// this list of conditions and the following disclaimer in the documentation
// and/or other materials provided with the distribution.
//
// THIS SOFTWARE IS PROVIDED BY THE COPYRIGHT HOLDERS AND CONTRIBUTORS "AS IS"
// AND ANY EXPRESS OR IMPLIED WARRANTIES, INCLUDING, BUT NOT LIMITED TO, THE
// IMPLIED WARRANTIES OF MERCHANTABILITY AND FITNESS FOR A PARTICULAR PURPOSE
// ARE DISCLAIMED. IN NO EVENT SHALL THE COPYRIGHT OWNER OR CONTRIBUTORS BE
// LIABLE FOR ANY DIRECT, INDIRECT, INCIDENTAL, SPECIAL, EXEMPLARY, OR
// CONSEQUENTIAL DAMAGES (INCLUDING, BUT NOT LIMITED TO, PROCUREMENT OF
// SUBSTITUTE GOODS OR SERVICES; LOSS OF USE, DATA, OR PROFITS; OR BUSINESS
// INTERRUPTION) HOWEVER CAUSED AND ON ANY THEORY OF LIABILITY, WHETHER IN
// CONTRACT, STRICT LIABILITY, OR TORT (INCLUDING NEGLIGENCE OR OTHERWISE)
// ARISING IN ANY WAY OUT OF THE USE OF THIS SOFTWARE, EVEN IF ADVISED OF THE
// POSSIBILITY OF SUCH DAMAGE.

//A flattened butterfly configurate file with many tweaks from the
//default settings. 


// Flow control
// Total number of VCs must match the above assignments
num_vcs     = 2;
vc_buf_size = 128;

wait_for_tail_credit = 0;

//
// Router architectureq
//
vc_allocator = islip; 
sw_allocator = islip;
alloc_iters  = 3;

credit_delay   = 0;
routing_delay  = 1;
vc_alloc_delay = 1;
sw_alloc_delay = 1;
st_final_delay = 1;

input_speedup     = 1;
output_speedup    = 1;
internal_speedup  = 1.6;

//
// Traffic
//

warmup_periods = 3;

sample_period  = 1000;  

sim_count          = 1;

traffic       = uniform;


// Flatfly 
//
// #node = k^(n+1)
//
// x, y, specifies the arrangement of routers in x and y dim
// xr, yr specifiies the arayment of clients in a router
//
topology = flatfly;
subnets = 1;

c  = 6;
k  = 6;
n  = 2;

x  = 6;
y  = 6;
xr = 6;
yr = 1;

use_noc_latency = 0;

//
// Routing
//

routing_function = ran_min;

//1: batch mode, 0: injection mode
use_read_write = 0;

//for injection mode
packet_size = 1;
injection_rate = 0.1;

//for batch mode
read_request_size=1;
write_request_size=1;
read_reply_size=1;
write_reply_size=1;

read_request_begin_vc  = 0;
read_request_end_vc    = 3;
write_reply_begin_vc   = 4;
write_reply_end_vc     = 7;
read_reply_begin_vc    = 4;
read_reply_end_vc      = 7;
write_request_begin_vc = 0;
write_request_end_vc   = 3;

//latency: drains all packet, throughput:no drain?
sim_type = latency;

END Configuration File: ../../../../booksim2/src/examples/flatflyconfig
OVERRIDE Parameter: sim_type=latency
OVERRIDE Parameter: traffic=uniform
OVERRIDE Parameter: injection_rate={0.575}
 Flat Bufferfly 
 k = 6 n = 2 c = 6
 each switch - total radix =  16
 # of switches = 36
 # of channels = 360
 # of nodes ( size of network ) = 216
Class 0:
Packet latency average = 96.0413
	minimum = 5
	maximum = 141
Network latency average = 96.0413
	minimum = 5
	maximum = 141
Slowest packet = 45143
Flit latency average = 96.0413
	minimum = 5
	maximum = 141
Slowest flit = 45143
Fragmentation average = 0
	minimum = 0
	maximum = 0
Injected packet rate average = 0.574366
	minimum = 0.538 (at node 99)
	maximum = 0.608 (at node 82)
Accepted packet rate average = 0.51888
	minimum = 0.463 (at node 30)
	maximum = 0.588 (at node 34)
Injected flit rate average = 0.574366
	minimum = 0.538 (at node 99)
	maximum = 0.608 (at node 82)
Accepted flit rate average= 0.51888
	minimum = 0.463 (at node 30)
	maximum = 0.588 (at node 34)
Injected packet length average = 1
Accepted packet length average = 1
Total in-flight flits = 11985 (0 measured)
latency change    = 1
throughput change = 1
Class 0:
Packet latency average = 96.625
	minimum = 5
	maximum = 142
Network latency average = 96.625
	minimum = 5
	maximum = 142
Slowest packet = 177251
Flit latency average = 96.625
	minimum = 5
	maximum = 142
Slowest flit = 177251
Fragmentation average = 0
	minimum = 0
	maximum = 0
Injected packet rate average = 0.574875
	minimum = 0.5445 (at node 99)
	maximum = 0.6025 (at node 178)
Accepted packet rate average = 0.547032
	minimum = 0.5095 (at node 84)
	maximum = 0.599 (at node 34)
Injected flit rate average = 0.574875
	minimum = 0.5445 (at node 99)
	maximum = 0.6025 (at node 178)
Accepted flit rate average= 0.547032
	minimum = 0.5095 (at node 84)
	maximum = 0.599 (at node 34)
Injected packet length average = 1
Accepted packet length average = 1
Total in-flight flits = 12028 (0 measured)
latency change    = 0.00604026
throughput change = 0.0514646
Class 0:
Packet latency average = 97.1013
	minimum = 5
	maximum = 146
Network latency average = 97.1013
	minimum = 5
	maximum = 146
Slowest packet = 242065
Flit latency average = 97.1013
	minimum = 5
	maximum = 146
Slowest flit = 242065
Fragmentation average = 0
	minimum = 0
	maximum = 0
Injected packet rate average = 0.575333
	minimum = 0.537 (at node 210)
	maximum = 0.637 (at node 168)
Accepted packet rate average = 0.57531
	minimum = 0.523 (at node 42)
	maximum = 0.621 (at node 60)
Injected flit rate average = 0.575333
	minimum = 0.537 (at node 210)
	maximum = 0.637 (at node 168)
Accepted flit rate average= 0.57531
	minimum = 0.523 (at node 42)
	maximum = 0.621 (at node 60)
Injected packet length average = 1
Accepted packet length average = 1
Total in-flight flits = 12033 (0 measured)
latency change    = 0.00490543
throughput change = 0.0491522
Warmed up ...Time used is 3000 cycles
Class 0:
Packet latency average = 96.0791
	minimum = 5
	maximum = 143
Network latency average = 96.0791
	minimum = 5
	maximum = 143
Slowest packet = 477539
Flit latency average = 97.015
	minimum = 5
	maximum = 143
Slowest flit = 477539
Fragmentation average = 0
	minimum = 0
	maximum = 0
Injected packet rate average = 0.575343
	minimum = 0.533 (at node 197)
	maximum = 0.623 (at node 75)
Accepted packet rate average = 0.575819
	minimum = 0.507 (at node 154)
	maximum = 0.646 (at node 100)
Injected flit rate average = 0.575343
	minimum = 0.533 (at node 197)
	maximum = 0.623 (at node 75)
Accepted flit rate average= 0.575819
	minimum = 0.507 (at node 154)
	maximum = 0.646 (at node 100)
Injected packet length average = 1
Accepted packet length average = 1
Total in-flight flits = 11930 (11930 measured)
latency change    = 0.0106389
throughput change = 0.000884408
Class 0:
Packet latency average = 96.6321
	minimum = 5
	maximum = 144
Network latency average = 96.6321
	minimum = 5
	maximum = 144
Slowest packet = 516324
Flit latency average = 97.0737
	minimum = 5
	maximum = 144
Slowest flit = 516324
Fragmentation average = 0
	minimum = 0
	maximum = 0
Injected packet rate average = 0.575546
	minimum = 0.55 (at node 57)
	maximum = 0.6095 (at node 149)
Accepted packet rate average = 0.575347
	minimum = 0.524 (at node 179)
	maximum = 0.6195 (at node 209)
Injected flit rate average = 0.575546
	minimum = 0.55 (at node 57)
	maximum = 0.6095 (at node 149)
Accepted flit rate average= 0.575347
	minimum = 0.524 (at node 179)
	maximum = 0.6195 (at node 209)
Injected packet length average = 1
Accepted packet length average = 1
Total in-flight flits = 12119 (12119 measured)
latency change    = 0.00572324
throughput change = 0.00082076
Class 0:
Packet latency average = 96.771
	minimum = 5
	maximum = 144
Network latency average = 96.771
	minimum = 5
	maximum = 144
Slowest packet = 516324
Flit latency average = 97.0612
	minimum = 5
	maximum = 144
Slowest flit = 516324
Fragmentation average = 0
	minimum = 0
	maximum = 0
Injected packet rate average = 0.574659
	minimum = 0.553333 (at node 145)
	maximum = 0.600667 (at node 211)
Accepted packet rate average = 0.574782
	minimum = 0.528667 (at node 179)
	maximum = 0.611 (at node 92)
Injected flit rate average = 0.574659
	minimum = 0.553333 (at node 145)
	maximum = 0.600667 (at node 211)
Accepted flit rate average= 0.574782
	minimum = 0.528667 (at node 179)
	maximum = 0.611 (at node 92)
Injected packet length average = 1
Accepted packet length average = 1
Total in-flight flits = 11953 (11953 measured)
latency change    = 0.00143481
throughput change = 0.000982658
Draining all recorded packets ...
Draining remaining packets ...
Time taken is 6294 cycles
====== Overall Traffic Statistics ======
====== Traffic class 0 ======
Packet latency average = 97.0445 (1 samples)
	minimum = 5 (1 samples)
	maximum = 144 (1 samples)
Network latency average = 97.0445 (1 samples)
	minimum = 5 (1 samples)
	maximum = 144 (1 samples)
Flit latency average = 97.2992 (1 samples)
	minimum = 5 (1 samples)
	maximum = 144 (1 samples)
Fragmentation average = 0 (1 samples)
	minimum = 0 (1 samples)
	maximum = 0 (1 samples)
Injected packet rate average = 0.574659 (1 samples)
	minimum = 0.553333 (1 samples)
	maximum = 0.600667 (1 samples)
Accepted packet rate average = 0.574782 (1 samples)
	minimum = 0.528667 (1 samples)
	maximum = 0.611 (1 samples)
Injected flit rate average = 0.574659 (1 samples)
	minimum = 0.553333 (1 samples)
	maximum = 0.600667 (1 samples)
Accepted flit rate average = 0.574782 (1 samples)
	minimum = 0.528667 (1 samples)
	maximum = 0.611 (1 samples)
Injected packet size average = 1 (1 samples)
Accepted packet size average = 1 (1 samples)
Hops average = 2.6659 (1 samples)
Total run time 5.9144
